version 3
run General-0-20241031-13:47:15-23832
attr configname General
attr datetime 20241031-13:47:15
attr datetimef 20241031-134715
attr experiment General
attr inifile omnetpp.ini
attr iterationvars ""
attr iterationvarsd ""
attr iterationvarsf ""
attr measurement ""
attr network WiredMeshNetwork
attr processid 23832
attr repetition 0
attr replication #0
attr resultdir results
attr runnumber 0
attr seedset 0
config image-path ../../inet4.5/images
config network WiredMeshNetwork
config sim-time-limit 20s
config *.host*.ipv4.arp.typename GlobalArp
config *.host*.forwarding true
config *.host*.numApps 2
config *.host*.app[0].typename UdpBasicApp
config *.host*.app[0].destAddresses "\"host1 host2 host3 host4 host5\""
config *.host*.app[0].messageLength 1000B
config *.host*.app[0].sendInterval exponential(12ms)
config *.host*.app[0].packetName "\"UDPData\""
config *.host*.app[0].destPort 5000
config *.host*.app[0].recordStats true
config *.host*.app[1].typename UdpSink
config *.host*.app[1].localPort 5000
config *.host*.eth[*].mac.address auto
config *.host*.eth[*].mac.bitrate 100Mbps
config *.host*.eth[*].mac.recordScalar true
config *.host*.**.bitrate 100Mbps
config *.host*.recordScalar true
config *.host*.app[*].recordScalar true

par WiredMeshNetwork.host1.ethg$o[0].channel typename "\"inet.node.ethernet.Eth100M\""
par WiredMeshNetwork.host1.ethg$o[0].channel disabled false
attr mutable ""
par WiredMeshNetwork.host1.ethg$o[0].channel delay 5e-08s
attr mutable ""
attr unit s
par WiredMeshNetwork.host1.ethg$o[0].channel datarate 1e+08bps
attr mutable ""
attr unit bps
par WiredMeshNetwork.host1.ethg$o[0].channel ber 0
attr mutable ""
par WiredMeshNetwork.host1.ethg$o[0].channel per 0
attr mutable ""
par WiredMeshNetwork.host1.ethg$o[0].channel length 10m
attr unit m
par WiredMeshNetwork.host2.ethg$o[0].channel typename "\"inet.node.ethernet.Eth100M\""
par WiredMeshNetwork.host2.ethg$o[0].channel disabled false
attr mutable ""
par WiredMeshNetwork.host2.ethg$o[0].channel delay 5e-08s
attr mutable ""
attr unit s
par WiredMeshNetwork.host2.ethg$o[0].channel datarate 1e+08bps
attr mutable ""
attr unit bps
par WiredMeshNetwork.host2.ethg$o[0].channel ber 0
attr mutable ""
par WiredMeshNetwork.host2.ethg$o[0].channel per 0
attr mutable ""
par WiredMeshNetwork.host2.ethg$o[0].channel length 10m
attr unit m
par WiredMeshNetwork.host1.ethg$o[1].channel typename "\"inet.node.ethernet.Eth100M\""
par WiredMeshNetwork.host1.ethg$o[1].channel disabled false
attr mutable ""
par WiredMeshNetwork.host1.ethg$o[1].channel delay 5e-08s
attr mutable ""
attr unit s
par WiredMeshNetwork.host1.ethg$o[1].channel datarate 1e+08bps
attr mutable ""
attr unit bps
par WiredMeshNetwork.host1.ethg$o[1].channel ber 0
attr mutable ""
par WiredMeshNetwork.host1.ethg$o[1].channel per 0
attr mutable ""
par WiredMeshNetwork.host1.ethg$o[1].channel length 10m
attr unit m
par WiredMeshNetwork.host3.ethg$o[0].channel typename "\"inet.node.ethernet.Eth100M\""
par WiredMeshNetwork.host3.ethg$o[0].channel disabled false
attr mutable ""
par WiredMeshNetwork.host3.ethg$o[0].channel delay 5e-08s
attr mutable ""
attr unit s
par WiredMeshNetwork.host3.ethg$o[0].channel datarate 1e+08bps
attr mutable ""
attr unit bps
par WiredMeshNetwork.host3.ethg$o[0].channel ber 0
attr mutable ""
par WiredMeshNetwork.host3.ethg$o[0].channel per 0
attr mutable ""
par WiredMeshNetwork.host3.ethg$o[0].channel length 10m
attr unit m
par WiredMeshNetwork.host1.ethg$o[2].channel typename "\"inet.node.ethernet.Eth100M\""
par WiredMeshNetwork.host1.ethg$o[2].channel disabled false
attr mutable ""
par WiredMeshNetwork.host1.ethg$o[2].channel delay 5e-08s
attr mutable ""
attr unit s
par WiredMeshNetwork.host1.ethg$o[2].channel datarate 1e+08bps
attr mutable ""
attr unit bps
par WiredMeshNetwork.host1.ethg$o[2].channel ber 0
attr mutable ""
par WiredMeshNetwork.host1.ethg$o[2].channel per 0
attr mutable ""
par WiredMeshNetwork.host1.ethg$o[2].channel length 10m
attr unit m
par WiredMeshNetwork.host4.ethg$o[0].channel typename "\"inet.node.ethernet.Eth100M\""
par WiredMeshNetwork.host4.ethg$o[0].channel disabled false
attr mutable ""
par WiredMeshNetwork.host4.ethg$o[0].channel delay 5e-08s
attr mutable ""
attr unit s
par WiredMeshNetwork.host4.ethg$o[0].channel datarate 1e+08bps
attr mutable ""
attr unit bps
par WiredMeshNetwork.host4.ethg$o[0].channel ber 0
attr mutable ""
par WiredMeshNetwork.host4.ethg$o[0].channel per 0
attr mutable ""
par WiredMeshNetwork.host4.ethg$o[0].channel length 10m
attr unit m
par WiredMeshNetwork.host1.ethg$o[3].channel typename "\"inet.node.ethernet.Eth100M\""
par WiredMeshNetwork.host1.ethg$o[3].channel disabled false
attr mutable ""
par WiredMeshNetwork.host1.ethg$o[3].channel delay 5e-08s
attr mutable ""
attr unit s
par WiredMeshNetwork.host1.ethg$o[3].channel datarate 1e+08bps
attr mutable ""
attr unit bps
par WiredMeshNetwork.host1.ethg$o[3].channel ber 0
attr mutable ""
par WiredMeshNetwork.host1.ethg$o[3].channel per 0
attr mutable ""
par WiredMeshNetwork.host1.ethg$o[3].channel length 10m
attr unit m
par WiredMeshNetwork.host5.ethg$o[0].channel typename "\"inet.node.ethernet.Eth100M\""
par WiredMeshNetwork.host5.ethg$o[0].channel disabled false
attr mutable ""
par WiredMeshNetwork.host5.ethg$o[0].channel delay 5e-08s
attr mutable ""
attr unit s
par WiredMeshNetwork.host5.ethg$o[0].channel datarate 1e+08bps
attr mutable ""
attr unit bps
par WiredMeshNetwork.host5.ethg$o[0].channel ber 0
attr mutable ""
par WiredMeshNetwork.host5.ethg$o[0].channel per 0
attr mutable ""
par WiredMeshNetwork.host5.ethg$o[0].channel length 10m
attr unit m
par WiredMeshNetwork.host2.ethg$o[1].channel typename "\"inet.node.ethernet.Eth100M\""
par WiredMeshNetwork.host2.ethg$o[1].channel disabled false
attr mutable ""
par WiredMeshNetwork.host2.ethg$o[1].channel delay 5e-08s
attr mutable ""
attr unit s
par WiredMeshNetwork.host2.ethg$o[1].channel datarate 1e+08bps
attr mutable ""
attr unit bps
par WiredMeshNetwork.host2.ethg$o[1].channel ber 0
attr mutable ""
par WiredMeshNetwork.host2.ethg$o[1].channel per 0
attr mutable ""
par WiredMeshNetwork.host2.ethg$o[1].channel length 10m
attr unit m
par WiredMeshNetwork.host3.ethg$o[1].channel typename "\"inet.node.ethernet.Eth100M\""
par WiredMeshNetwork.host3.ethg$o[1].channel disabled false
attr mutable ""
par WiredMeshNetwork.host3.ethg$o[1].channel delay 5e-08s
attr mutable ""
attr unit s
par WiredMeshNetwork.host3.ethg$o[1].channel datarate 1e+08bps
attr mutable ""
attr unit bps
par WiredMeshNetwork.host3.ethg$o[1].channel ber 0
attr mutable ""
par WiredMeshNetwork.host3.ethg$o[1].channel per 0
attr mutable ""
par WiredMeshNetwork.host3.ethg$o[1].channel length 10m
attr unit m
par WiredMeshNetwork.host2.ethg$o[2].channel typename "\"inet.node.ethernet.Eth100M\""
par WiredMeshNetwork.host2.ethg$o[2].channel disabled false
attr mutable ""
par WiredMeshNetwork.host2.ethg$o[2].channel delay 5e-08s
attr mutable ""
attr unit s
par WiredMeshNetwork.host2.ethg$o[2].channel datarate 1e+08bps
attr mutable ""
attr unit bps
par WiredMeshNetwork.host2.ethg$o[2].channel ber 0
attr mutable ""
par WiredMeshNetwork.host2.ethg$o[2].channel per 0
attr mutable ""
par WiredMeshNetwork.host2.ethg$o[2].channel length 10m
attr unit m
par WiredMeshNetwork.host4.ethg$o[1].channel typename "\"inet.node.ethernet.Eth100M\""
par WiredMeshNetwork.host4.ethg$o[1].channel disabled false
attr mutable ""
par WiredMeshNetwork.host4.ethg$o[1].channel delay 5e-08s
attr mutable ""
attr unit s
par WiredMeshNetwork.host4.ethg$o[1].channel datarate 1e+08bps
attr mutable ""
attr unit bps
par WiredMeshNetwork.host4.ethg$o[1].channel ber 0
attr mutable ""
par WiredMeshNetwork.host4.ethg$o[1].channel per 0
attr mutable ""
par WiredMeshNetwork.host4.ethg$o[1].channel length 10m
attr unit m
par WiredMeshNetwork.host2.ethg$o[3].channel typename "\"inet.node.ethernet.Eth100M\""
par WiredMeshNetwork.host2.ethg$o[3].channel disabled false
attr mutable ""
par WiredMeshNetwork.host2.ethg$o[3].channel delay 5e-08s
attr mutable ""
attr unit s
par WiredMeshNetwork.host2.ethg$o[3].channel datarate 1e+08bps
attr mutable ""
attr unit bps
par WiredMeshNetwork.host2.ethg$o[3].channel ber 0
attr mutable ""
par WiredMeshNetwork.host2.ethg$o[3].channel per 0
attr mutable ""
par WiredMeshNetwork.host2.ethg$o[3].channel length 10m
attr unit m
par WiredMeshNetwork.host5.ethg$o[1].channel typename "\"inet.node.ethernet.Eth100M\""
par WiredMeshNetwork.host5.ethg$o[1].channel disabled false
attr mutable ""
par WiredMeshNetwork.host5.ethg$o[1].channel delay 5e-08s
attr mutable ""
attr unit s
par WiredMeshNetwork.host5.ethg$o[1].channel datarate 1e+08bps
attr mutable ""
attr unit bps
par WiredMeshNetwork.host5.ethg$o[1].channel ber 0
attr mutable ""
par WiredMeshNetwork.host5.ethg$o[1].channel per 0
attr mutable ""
par WiredMeshNetwork.host5.ethg$o[1].channel length 10m
attr unit m
par WiredMeshNetwork.host3.ethg$o[2].channel typename "\"inet.node.ethernet.Eth100M\""
par WiredMeshNetwork.host3.ethg$o[2].channel disabled false
attr mutable ""
par WiredMeshNetwork.host3.ethg$o[2].channel delay 5e-08s
attr mutable ""
attr unit s
par WiredMeshNetwork.host3.ethg$o[2].channel datarate 1e+08bps
attr mutable ""
attr unit bps
par WiredMeshNetwork.host3.ethg$o[2].channel ber 0
attr mutable ""
par WiredMeshNetwork.host3.ethg$o[2].channel per 0
attr mutable ""
par WiredMeshNetwork.host3.ethg$o[2].channel length 10m
attr unit m
par WiredMeshNetwork.host4.ethg$o[2].channel typename "\"inet.node.ethernet.Eth100M\""
par WiredMeshNetwork.host4.ethg$o[2].channel disabled false
attr mutable ""
par WiredMeshNetwork.host4.ethg$o[2].channel delay 5e-08s
attr mutable ""
attr unit s
par WiredMeshNetwork.host4.ethg$o[2].channel datarate 1e+08bps
attr mutable ""
attr unit bps
par WiredMeshNetwork.host4.ethg$o[2].channel ber 0
attr mutable ""
par WiredMeshNetwork.host4.ethg$o[2].channel per 0
attr mutable ""
par WiredMeshNetwork.host4.ethg$o[2].channel length 10m
attr unit m
par WiredMeshNetwork.host3.ethg$o[3].channel typename "\"inet.node.ethernet.Eth100M\""
par WiredMeshNetwork.host3.ethg$o[3].channel disabled false
attr mutable ""
par WiredMeshNetwork.host3.ethg$o[3].channel delay 5e-08s
attr mutable ""
attr unit s
par WiredMeshNetwork.host3.ethg$o[3].channel datarate 1e+08bps
attr mutable ""
attr unit bps
par WiredMeshNetwork.host3.ethg$o[3].channel ber 0
attr mutable ""
par WiredMeshNetwork.host3.ethg$o[3].channel per 0
attr mutable ""
par WiredMeshNetwork.host3.ethg$o[3].channel length 10m
attr unit m
par WiredMeshNetwork.host5.ethg$o[2].channel typename "\"inet.node.ethernet.Eth100M\""
par WiredMeshNetwork.host5.ethg$o[2].channel disabled false
attr mutable ""
par WiredMeshNetwork.host5.ethg$o[2].channel delay 5e-08s
attr mutable ""
attr unit s
par WiredMeshNetwork.host5.ethg$o[2].channel datarate 1e+08bps
attr mutable ""
attr unit bps
par WiredMeshNetwork.host5.ethg$o[2].channel ber 0
attr mutable ""
par WiredMeshNetwork.host5.ethg$o[2].channel per 0
attr mutable ""
par WiredMeshNetwork.host5.ethg$o[2].channel length 10m
attr unit m
par WiredMeshNetwork.host4.ethg$o[3].channel typename "\"inet.node.ethernet.Eth100M\""
par WiredMeshNetwork.host4.ethg$o[3].channel disabled false
attr mutable ""
par WiredMeshNetwork.host4.ethg$o[3].channel delay 5e-08s
attr mutable ""
attr unit s
par WiredMeshNetwork.host4.ethg$o[3].channel datarate 1e+08bps
attr mutable ""
attr unit bps
par WiredMeshNetwork.host4.ethg$o[3].channel ber 0
attr mutable ""
par WiredMeshNetwork.host4.ethg$o[3].channel per 0
attr mutable ""
par WiredMeshNetwork.host4.ethg$o[3].channel length 10m
attr unit m
par WiredMeshNetwork.host5.ethg$o[3].channel typename "\"inet.node.ethernet.Eth100M\""
par WiredMeshNetwork.host5.ethg$o[3].channel disabled false
attr mutable ""
par WiredMeshNetwork.host5.ethg$o[3].channel delay 5e-08s
attr mutable ""
attr unit s
par WiredMeshNetwork.host5.ethg$o[3].channel datarate 1e+08bps
attr mutable ""
attr unit bps
par WiredMeshNetwork.host5.ethg$o[3].channel ber 0
attr mutable ""
par WiredMeshNetwork.host5.ethg$o[3].channel per 0
attr mutable ""
par WiredMeshNetwork.host5.ethg$o[3].channel length 10m
attr unit m
par WiredMeshNetwork.host1.ethg$i[0].channel typename "\"ned.IdealChannel\""
par WiredMeshNetwork.host1.eth[0].phys$o.channel typename "\"ned.IdealChannel\""
par WiredMeshNetwork.host1.ethg$i[1].channel typename "\"ned.IdealChannel\""
par WiredMeshNetwork.host1.eth[1].phys$o.channel typename "\"ned.IdealChannel\""
par WiredMeshNetwork.host1.ethg$i[2].channel typename "\"ned.IdealChannel\""
par WiredMeshNetwork.host1.eth[2].phys$o.channel typename "\"ned.IdealChannel\""
par WiredMeshNetwork.host1.ethg$i[3].channel typename "\"ned.IdealChannel\""
par WiredMeshNetwork.host1.eth[3].phys$o.channel typename "\"ned.IdealChannel\""
par WiredMeshNetwork.host1.interfaceTable typename "\"inet.networklayer.common.InterfaceTable\""
par WiredMeshNetwork.host1.interfaceTable displayAddresses false
par WiredMeshNetwork.host1.cb typename "\"inet.common.MessageDispatcher\""
par WiredMeshNetwork.host1.cb displayStringTextFormat "\"processed %p pk (%l)\""
par WiredMeshNetwork.host1.cb forwardServiceRegistration true
par WiredMeshNetwork.host1.cb forwardProtocolRegistration true
par WiredMeshNetwork.host1.bl typename "\"inet.common.MessageDispatcher\""
par WiredMeshNetwork.host1.bl displayStringTextFormat "\"processed %p pk (%l)\""
par WiredMeshNetwork.host1.bl forwardServiceRegistration true
par WiredMeshNetwork.host1.bl forwardProtocolRegistration true
par WiredMeshNetwork.host1.ethernet typename "\"inet.linklayer.ethernet.basic.EthernetEncapsulation\""
par WiredMeshNetwork.host1.ethernet registerProtocol true
par WiredMeshNetwork.host1.ethernet interfaceTableModule "\"WiredMeshNetwork.host1.interfaceTable\""
par WiredMeshNetwork.host1.ethernet fcsMode "\"declared\""
attr enum declared,computed
par WiredMeshNetwork.host1.ethernet stopOperationExtraTime -1s
attr unit s
par WiredMeshNetwork.host1.ethernet stopOperationTimeout 2s
attr unit s
scalar WiredMeshNetwork.host1.ethernet decapPk:count 1344
attr interpolationmode none
attr recordingmode count
attr source decapPk
attr title "packets decapsulated, count"
scalar WiredMeshNetwork.host1.ethernet decapPk:sum(packetBytes) 1381632
attr interpolationmode none
attr recordingmode sum(packetBytes)
attr source decapPk
attr title "packets decapsulated, sum(packetBytes)"
scalar WiredMeshNetwork.host1.ethernet encapPk:count 1364
attr interpolationmode none
attr recordingmode count
attr source encapPk
attr title "packets encapsulated, count"
scalar WiredMeshNetwork.host1.ethernet encapPk:sum(packetBytes) 1402192
attr interpolationmode none
attr recordingmode sum(packetBytes)
attr source encapPk
attr title "packets encapsulated, sum(packetBytes)"
scalar WiredMeshNetwork.host1.ethernet pauseSent:count 0
attr recordingmode count
attr title "pause sent, count"
scalar WiredMeshNetwork.host1.ethernet pauseSent:sum 0
attr recordingmode sum
attr title "pause sent, sum"
par WiredMeshNetwork.host1.li typename "\"inet.common.MessageDispatcher\""
par WiredMeshNetwork.host1.li displayStringTextFormat "\"processed %p pk (%l)\""
par WiredMeshNetwork.host1.li forwardServiceRegistration true
par WiredMeshNetwork.host1.li forwardProtocolRegistration true
par WiredMeshNetwork.host1.lo[0].upperLayerIn.channel typename "\"ned.IdealChannel\""
par WiredMeshNetwork.host1.lo[0].lo.upperLayerOut.channel typename "\"ned.IdealChannel\""
par WiredMeshNetwork.host1.lo[0].lo typename "\"inet.linklayer.loopback.Loopback\""
par WiredMeshNetwork.host1.lo[0].lo interfaceTableModule "\"WiredMeshNetwork.host1.interfaceTable\""
par WiredMeshNetwork.host1.lo[0].lo mtu 4470B
attr unit B
scalar WiredMeshNetwork.host1.lo[0].lo rcvdPkFromHl:count 337
attr interpolationmode none
attr recordingmode count
attr source packetReceivedFromUpper
attr title "packets received from higher layer, count"
scalar WiredMeshNetwork.host1.lo[0].lo rcvdPkFromHl:sum(packetBytes) 346436
attr interpolationmode none
attr recordingmode sum(packetBytes)
attr source packetReceivedFromUpper
attr title "packets received from higher layer, sum(packetBytes)"
scalar WiredMeshNetwork.host1.lo[0].lo passedUpPk:count 337
attr interpolationmode none
attr recordingmode count
attr source packetSentToUpper
attr title "packets passed to higher layer, count"
scalar WiredMeshNetwork.host1.lo[0].lo passedUpPk:sum(packetBytes) 346436
attr interpolationmode none
attr recordingmode sum(packetBytes)
attr source packetSentToUpper
attr title "packets passed to higher layer, sum(packetBytes)"
par WiredMeshNetwork.host1.lo[0] typename "\"inet.linklayer.loopback.LoopbackInterface\""
par WiredMeshNetwork.host1.lo[0] displayStringTextFormat "\"%a (%i)\\n%m\""
par WiredMeshNetwork.host1.lo[0] recordPcap false
par WiredMeshNetwork.host1.lo[0] numPcapRecorders 0
par WiredMeshNetwork.host1.lo[0] interfaceTableModule "\"WiredMeshNetwork.host1.interfaceTable\""
scalar WiredMeshNetwork.host1.lo[0] packetDropInterfaceDown:count 0
attr interpolationmode none
attr recordingmode count
attr source packetDropReasonIsInterfaceDown(packetDropped)
attr title "packet drops: interface down, count"
scalar WiredMeshNetwork.host1.lo[0] packetDropInterfaceDown:sum(packetBytes) 0
attr interpolationmode none
attr recordingmode sum(packetBytes)
attr source packetDropReasonIsInterfaceDown(packetDropped)
attr title "packet drops: interface down, sum(packetBytes)"
scalar WiredMeshNetwork.host1.lo[0] packetDropNoCarrier:count 0
attr interpolationmode none
attr recordingmode count
attr source packetDropReasonIsNoCarrier(packetDropped)
attr title "packet drops: no carrier, count"
scalar WiredMeshNetwork.host1.lo[0] packetDropNoCarrier:sum(packetBytes) 0
attr interpolationmode none
attr recordingmode sum(packetBytes)
attr source packetDropReasonIsNoCarrier(packetDropped)
attr title "packet drops: no carrier, sum(packetBytes)"
par WiredMeshNetwork.host1.eth[0].mac.phys$o.channel typename "\"ned.IdealChannel\""
par WiredMeshNetwork.host1.eth[0].phys$i.channel typename "\"ned.IdealChannel\""
par WiredMeshNetwork.host1.eth[0].upperLayerIn.channel typename "\"ned.IdealChannel\""
par WiredMeshNetwork.host1.eth[0].mac.upperLayerOut.channel typename "\"ned.IdealChannel\""
par WiredMeshNetwork.host1.eth[0].queue typename "\"inet.linklayer.ethernet.common.EthernetQueue\""
par WiredMeshNetwork.host1.eth[0].queue displayStringTextFormat "\"contains %p pk (%l) pushed %u\\npulled %o removed %r dropped %d\""
par WiredMeshNetwork.host1.eth[0].queue packetCapacity 1000
par WiredMeshNetwork.host1.eth[0].queue dataCapacity -1b
attr unit b
par WiredMeshNetwork.host1.eth[0].queue dropperClass "\"inet::queueing::PacketAtCollectionEndDropper\""
par WiredMeshNetwork.host1.eth[0].queue comparatorClass "\"inet::EthernetFrameTypeComparator\""
par WiredMeshNetwork.host1.eth[0].queue bufferModule "\"\""
scalar WiredMeshNetwork.host1.eth[0].queue queueLength:last 0
attr autoWarmupFilter false
attr interpolationmode sample-hold
attr recordingmode last
attr source "warmup(atomic(constant0(packetPushEnded) + count(packetPushStarted) - count(packetPulled) - count(packetRemoved) - count(packetDropped)))"
attr title "queue length, last"
attr unit pk
scalar WiredMeshNetwork.host1.eth[0].queue queueLength:max 1
attr autoWarmupFilter false
attr interpolationmode sample-hold
attr recordingmode max
attr source "warmup(atomic(constant0(packetPushEnded) + count(packetPushStarted) - count(packetPulled) - count(packetRemoved) - count(packetDropped)))"
attr title "queue length, max"
attr unit pk
scalar WiredMeshNetwork.host1.eth[0].queue queueLength:timeavg 4.69197285e-06
attr autoWarmupFilter false
attr interpolationmode sample-hold
attr recordingmode timeavg
attr source "warmup(atomic(constant0(packetPushEnded) + count(packetPushStarted) - count(packetPulled) - count(packetRemoved) - count(packetDropped)))"
attr title "queue length, timeavg"
attr unit pk
scalar WiredMeshNetwork.host1.eth[0].queue queueBitLength:last 0
attr autoWarmupFilter false
attr interpolationmode sample-hold
attr recordingmode last
attr source "warmup(atomic(constant0(packetPushEnded) + sum(packetLength(packetPushStarted)) - sum(packetLength(packetPulled)) - sum(packetLength(packetRemoved)) - sum(packetLength(packetDropped))))"
attr title "queue bit length, last"
attr unit b
scalar WiredMeshNetwork.host1.eth[0].queue queueBitLength:max 8368
attr autoWarmupFilter false
attr interpolationmode sample-hold
attr recordingmode max
attr source "warmup(atomic(constant0(packetPushEnded) + sum(packetLength(packetPushStarted)) - sum(packetLength(packetPulled)) - sum(packetLength(packetRemoved)) - sum(packetLength(packetDropped))))"
attr title "queue bit length, max"
attr unit b
scalar WiredMeshNetwork.host1.eth[0].queue queueBitLength:timeavg 0.0392624288088
attr autoWarmupFilter false
attr interpolationmode sample-hold
attr recordingmode timeavg
attr source "warmup(atomic(constant0(packetPushEnded) + sum(packetLength(packetPushStarted)) - sum(packetLength(packetPulled)) - sum(packetLength(packetRemoved)) - sum(packetLength(packetDropped))))"
attr title "queue bit length, timeavg"
attr unit b
statistic WiredMeshNetwork.host1.eth[0].queue queueingTime:histogram
field count 342
field mean 2.7438437719298e-07
field stddev 3.6198850666449e-06
field min 0
field max 5.3670391e-05
field sum 9.3839457e-05
field sqrsum 4.4940647334052e-09
attr interpolationmode none
attr recordingmode histogram
attr source queueingTime(packetPulled)
attr title "queueing times"
attr unit s
bin	-inf	0
bin	-0.5	0
bin	-0.48	0
bin	-0.46	0
bin	-0.44	0
bin	-0.42	0
bin	-0.4	0
bin	-0.38	0
bin	-0.36	0
bin	-0.34	0
bin	-0.32	0
bin	-0.3	0
bin	-0.28	0
bin	-0.26	0
bin	-0.24	0
bin	-0.22	0
bin	-0.2	0
bin	-0.18	0
bin	-0.16	0
bin	-0.14	0
bin	-0.12	0
bin	-0.1	0
bin	-0.08	0
bin	-0.06	0
bin	-0.04	0
bin	-0.02	0
bin	0	342
bin	0.02	0
bin	0.04	0
bin	0.06	0
bin	0.08	0
bin	0.1	0
bin	0.12	0
bin	0.14	0
bin	0.16	0
bin	0.18	0
bin	0.2	0
bin	0.22	0
bin	0.24	0
bin	0.26	0
bin	0.28	0
bin	0.3	0
bin	0.32	0
bin	0.34	0
bin	0.36	0
bin	0.38	0
bin	0.4	0
bin	0.42	0
bin	0.44	0
bin	0.46	0
bin	0.48	0
bin	0.5	0
scalar WiredMeshNetwork.host1.eth[0].queue outgoingPackets:count 342
attr recordingmode count
attr source packetPulled
attr title "outgoing packets, count"
attr unit pk
scalar WiredMeshNetwork.host1.eth[0].queue outgoingPacketLengths:sum 2861856
attr interpolationmode none
attr recordingmode sum
attr source packetLength(packetPulled)
attr title "outgoing packet lengths, sum"
attr unit b
statistic WiredMeshNetwork.host1.eth[0].queue outgoingPacketLengths:histogram
field count 342
field mean 8368
field stddev 0
field min 8368
field max 8368
field sum 2861856
field sqrsum 23948011008
attr interpolationmode none
attr recordingmode histogram
attr source packetLength(packetPulled)
attr title "outgoing packet lengths"
attr unit b
bin	-inf	0
bin	8367	0
bin	8368	342
bin	8369	0
statistic WiredMeshNetwork.host1.eth[0].queue flowQueueingTime:histogram
field count 0
field mean nan
field stddev nan
field min nan
field max nan
field sum 0
field sqrsum 0
attr interpolationmode none
attr recordingmode histogram
attr source queueingTime(demuxFlow(packetPulled))
attr title "flow queueing times"
attr unit s
bin	-inf	0
bin	0	0
bin	1	0
scalar WiredMeshNetwork.host1.eth[0].queue incomingPackets:count 342
attr recordingmode count
attr source packetPushStarted
attr title "incoming packets, count"
attr unit pk
scalar WiredMeshNetwork.host1.eth[0].queue incomingPacketLengths:sum 2861856
attr interpolationmode none
attr recordingmode sum
attr source packetLength(packetPushStarted)
attr title "incoming packet lengths, sum"
attr unit b
statistic WiredMeshNetwork.host1.eth[0].queue incomingPacketLengths:histogram
field count 342
field mean 8368
field stddev 0
field min 8368
field max 8368
field sum 2861856
field sqrsum 23948011008
attr interpolationmode none
attr recordingmode histogram
attr source packetLength(packetPushStarted)
attr title "incoming packet lengths"
attr unit b
bin	-inf	0
bin	8367	0
bin	8368	342
bin	8369	0
scalar WiredMeshNetwork.host1.eth[0].queue droppedPacketsQueueOverflow:count 0
attr interpolationmode none
attr recordingmode count
attr source packetDropReasonIsQueueOverflow(packetDropped)
attr title "dropped packets: queue overflow, count"
attr unit pk
scalar WiredMeshNetwork.host1.eth[0].queue droppedPacketLengthsQueueOverflow:sum 0
attr interpolationmode none
attr recordingmode sum
attr source packetLength(packetDropReasonIsQueueOverflow(packetDropped))
attr title "dropped packet lengths: queue overflow, sum"
attr unit b
par WiredMeshNetwork.host1.eth[0].mac typename "\"inet.linklayer.ethernet.basic.EthernetMac\""
par WiredMeshNetwork.host1.eth[0].mac interfaceTableModule "\"WiredMeshNetwork.host1.interfaceTable\""
par WiredMeshNetwork.host1.eth[0].mac displayStringTextFormat "\"rate: %b\\nsent: %s, rcvd: %r\\nqueue: %q, drop: %d\""
par WiredMeshNetwork.host1.eth[0].mac sendRawBytes false
par WiredMeshNetwork.host1.eth[0].mac promiscuous false
par WiredMeshNetwork.host1.eth[0].mac duplexMode true
par WiredMeshNetwork.host1.eth[0].mac mtu 1500B
attr unit B
par WiredMeshNetwork.host1.eth[0].mac fcsMode "\"declared\""
attr enum declared,computed
par WiredMeshNetwork.host1.eth[0].mac stopOperationExtraTime -1s
attr unit s
par WiredMeshNetwork.host1.eth[0].mac stopOperationTimeout 2s
attr unit s
scalar WiredMeshNetwork.host1.eth[0].mac "simulated time" 20
scalar WiredMeshNetwork.host1.eth[0].mac full-duplex 1
scalar WiredMeshNetwork.host1.eth[0].mac "frames/sec sent" 17.1
scalar WiredMeshNetwork.host1.eth[0].mac "frames/sec rcvd" 14.95
scalar WiredMeshNetwork.host1.eth[0].mac "bits/sec sent" 143092.8
scalar WiredMeshNetwork.host1.eth[0].mac "bits/sec rcvd" 125101.6
scalar WiredMeshNetwork.host1.eth[0].mac "rx channel idle (%)" 99.8739416
scalar WiredMeshNetwork.host1.eth[0].mac "rx channel utilization (%)" 0.1260584
scalar WiredMeshNetwork.host1.eth[0].mac txPk:count 342
attr interpolationmode none
attr recordingmode count
attr source packetSentToLower
attr title "packets transmitted, count"
scalar WiredMeshNetwork.host1.eth[0].mac txPk:sum(packetBytes) 357732
attr interpolationmode none
attr recordingmode sum(packetBytes)
attr source packetSentToLower
attr title "packets transmitted, sum(packetBytes)"
scalar WiredMeshNetwork.host1.eth[0].mac packetReceivedFromUpper:count 342
attr interpolationmode none
attr recordingmode count
attr source packetReceivedFromUpper
attr title "packet bytes from higher layer, count"
scalar WiredMeshNetwork.host1.eth[0].mac packetReceivedFromUpper:sum(packetBytes) 357732
attr interpolationmode none
attr recordingmode sum(packetBytes)
attr source packetReceivedFromUpper
attr title "packet bytes from higher layer, sum(packetBytes)"
scalar WiredMeshNetwork.host1.eth[0].mac passedUpPk:count 299
attr interpolationmode none
attr recordingmode count
attr source packetSentToUpper
attr title "packets passed to higher layer, count"
scalar WiredMeshNetwork.host1.eth[0].mac passedUpPk:sum(packetBytes) 312754
attr interpolationmode none
attr recordingmode sum(packetBytes)
attr source packetSentToUpper
attr title "packets passed to higher layer, sum(packetBytes)"
scalar WiredMeshNetwork.host1.eth[0].mac packetDropIncorrectlyReceived:count 0
attr interpolationmode none
attr recordingmode count
attr source packetDropReasonIsIncorrectlyReceived(packetDropped)
attr title "packet drop: incorrectly received, count"
scalar WiredMeshNetwork.host1.eth[0].mac packetDropIncorrectlyReceived:sum(packetBytes) 0
attr interpolationmode none
attr recordingmode sum(packetBytes)
attr source packetDropReasonIsIncorrectlyReceived(packetDropped)
attr title "packet drop: incorrectly received, sum(packetBytes)"
scalar WiredMeshNetwork.host1.eth[0].mac packetDropInterfaceDown:count 0
attr interpolationmode none
attr recordingmode count
attr source packetDropReasonIsInterfaceDown(packetDropped)
attr title "packet drop: interface down, count"
scalar WiredMeshNetwork.host1.eth[0].mac packetDropInterfaceDown:sum(packetBytes) 0
attr interpolationmode none
attr recordingmode sum(packetBytes)
attr source packetDropReasonIsInterfaceDown(packetDropped)
attr title "packet drop: interface down, sum(packetBytes)"
scalar WiredMeshNetwork.host1.eth[0].mac packetDropNotAddressedToUs:count 0
attr interpolationmode none
attr recordingmode count
attr source packetDropReasonIsNotAddressedToUs(packetDropped)
attr title "packet drop: not addressed to us, count"
scalar WiredMeshNetwork.host1.eth[0].mac packetDropNotAddressedToUs:sum(packetBytes) 0
attr interpolationmode none
attr recordingmode sum(packetBytes)
attr source packetDropReasonIsNotAddressedToUs(packetDropped)
attr title "packet drop: not addressed to us, sum(packetBytes)"
scalar WiredMeshNetwork.host1.eth[0].mac rxPausePkUnits:count 0
attr interpolationmode none
attr recordingmode count
attr title "pause units received, count"
scalar WiredMeshNetwork.host1.eth[0].mac rxPausePkUnits:sum 0
attr interpolationmode none
attr recordingmode sum
attr title "pause units received, sum"
scalar WiredMeshNetwork.host1.eth[0].mac txPausePkUnits:count 0
attr interpolationmode none
attr recordingmode count
attr title "pause units sent, count"
scalar WiredMeshNetwork.host1.eth[0].mac txPausePkUnits:sum 0
attr interpolationmode none
attr recordingmode sum
attr title "pause units sent, sum"
scalar WiredMeshNetwork.host1.eth[0].mac rxPkOk:count 299
attr interpolationmode none
attr recordingmode count
attr source rxPkOk
attr title "packets received OK, count"
scalar WiredMeshNetwork.host1.eth[0].mac rxPkOk:sum(packetBytes) 312754
attr interpolationmode none
attr recordingmode sum(packetBytes)
attr source rxPkOk
attr title "packets received OK, sum(packetBytes)"
par WiredMeshNetwork.host1.eth[0] typename "\"inet.linklayer.ethernet.EthernetInterface\""
par WiredMeshNetwork.host1.eth[0] displayStringTextFormat "\"%a (%i)\\n%m\""
par WiredMeshNetwork.host1.eth[0] recordPcap false
par WiredMeshNetwork.host1.eth[0] numPcapRecorders 0
par WiredMeshNetwork.host1.eth[0] interfaceTableModule "\"WiredMeshNetwork.host1.interfaceTable\""
par WiredMeshNetwork.host1.eth[0] protocol "\"ethernetmac\""
par WiredMeshNetwork.host1.eth[0] address "\"0A-AA-00-00-00-01\""
attr mutable ""
par WiredMeshNetwork.host1.eth[0] duplexMode true
par WiredMeshNetwork.host1.eth[0] csmacdSupport false
par WiredMeshNetwork.host1.eth[0] bitrate 1e+08bps
attr unit bps
par WiredMeshNetwork.host1.eth[0] fcsMode "\"declared\""
attr enum declared,computed
scalar WiredMeshNetwork.host1.eth[0] packetDropInterfaceDown:count 0
attr interpolationmode none
attr recordingmode count
attr source packetDropReasonIsInterfaceDown(packetDropped)
attr title "packet drops: interface down, count"
scalar WiredMeshNetwork.host1.eth[0] packetDropInterfaceDown:sum(packetBytes) 0
attr interpolationmode none
attr recordingmode sum(packetBytes)
attr source packetDropReasonIsInterfaceDown(packetDropped)
attr title "packet drops: interface down, sum(packetBytes)"
scalar WiredMeshNetwork.host1.eth[0] packetDropNoCarrier:count 0
attr interpolationmode none
attr recordingmode count
attr source packetDropReasonIsNoCarrier(packetDropped)
attr title "packet drops: no carrier, count"
scalar WiredMeshNetwork.host1.eth[0] packetDropNoCarrier:sum(packetBytes) 0
attr interpolationmode none
attr recordingmode sum(packetBytes)
attr source packetDropReasonIsNoCarrier(packetDropped)
attr title "packet drops: no carrier, sum(packetBytes)"
par WiredMeshNetwork.host1.eth[1].mac.phys$o.channel typename "\"ned.IdealChannel\""
par WiredMeshNetwork.host1.eth[1].phys$i.channel typename "\"ned.IdealChannel\""
par WiredMeshNetwork.host1.eth[1].upperLayerIn.channel typename "\"ned.IdealChannel\""
par WiredMeshNetwork.host1.eth[1].mac.upperLayerOut.channel typename "\"ned.IdealChannel\""
par WiredMeshNetwork.host1.eth[1].queue typename "\"inet.linklayer.ethernet.common.EthernetQueue\""
par WiredMeshNetwork.host1.eth[1].queue displayStringTextFormat "\"contains %p pk (%l) pushed %u\\npulled %o removed %r dropped %d\""
par WiredMeshNetwork.host1.eth[1].queue packetCapacity 1000
par WiredMeshNetwork.host1.eth[1].queue dataCapacity -1b
attr unit b
par WiredMeshNetwork.host1.eth[1].queue dropperClass "\"inet::queueing::PacketAtCollectionEndDropper\""
par WiredMeshNetwork.host1.eth[1].queue comparatorClass "\"inet::EthernetFrameTypeComparator\""
par WiredMeshNetwork.host1.eth[1].queue bufferModule "\"\""
scalar WiredMeshNetwork.host1.eth[1].queue queueLength:last 0
attr autoWarmupFilter false
attr interpolationmode sample-hold
attr recordingmode last
attr source "warmup(atomic(constant0(packetPushEnded) + count(packetPushStarted) - count(packetPulled) - count(packetRemoved) - count(packetDropped)))"
attr title "queue length, last"
attr unit pk
scalar WiredMeshNetwork.host1.eth[1].queue queueLength:max 0
attr autoWarmupFilter false
attr interpolationmode sample-hold
attr recordingmode max
attr source "warmup(atomic(constant0(packetPushEnded) + count(packetPushStarted) - count(packetPulled) - count(packetRemoved) - count(packetDropped)))"
attr title "queue length, max"
attr unit pk
scalar WiredMeshNetwork.host1.eth[1].queue queueLength:timeavg 0
attr autoWarmupFilter false
attr interpolationmode sample-hold
attr recordingmode timeavg
attr source "warmup(atomic(constant0(packetPushEnded) + count(packetPushStarted) - count(packetPulled) - count(packetRemoved) - count(packetDropped)))"
attr title "queue length, timeavg"
attr unit pk
scalar WiredMeshNetwork.host1.eth[1].queue queueBitLength:last 0
attr autoWarmupFilter false
attr interpolationmode sample-hold
attr recordingmode last
attr source "warmup(atomic(constant0(packetPushEnded) + sum(packetLength(packetPushStarted)) - sum(packetLength(packetPulled)) - sum(packetLength(packetRemoved)) - sum(packetLength(packetDropped))))"
attr title "queue bit length, last"
attr unit b
scalar WiredMeshNetwork.host1.eth[1].queue queueBitLength:max 0
attr autoWarmupFilter false
attr interpolationmode sample-hold
attr recordingmode max
attr source "warmup(atomic(constant0(packetPushEnded) + sum(packetLength(packetPushStarted)) - sum(packetLength(packetPulled)) - sum(packetLength(packetRemoved)) - sum(packetLength(packetDropped))))"
attr title "queue bit length, max"
attr unit b
scalar WiredMeshNetwork.host1.eth[1].queue queueBitLength:timeavg 0
attr autoWarmupFilter false
attr interpolationmode sample-hold
attr recordingmode timeavg
attr source "warmup(atomic(constant0(packetPushEnded) + sum(packetLength(packetPushStarted)) - sum(packetLength(packetPulled)) - sum(packetLength(packetRemoved)) - sum(packetLength(packetDropped))))"
attr title "queue bit length, timeavg"
attr unit b
statistic WiredMeshNetwork.host1.eth[1].queue queueingTime:histogram
field count 341
field mean 0
field stddev 0
field min 0
field max 0
field sum 0
field sqrsum 0
attr interpolationmode none
attr recordingmode histogram
attr source queueingTime(packetPulled)
attr title "queueing times"
attr unit s
bin	-inf	0
bin	-0.5	0
bin	-0.48	0
bin	-0.46	0
bin	-0.44	0
bin	-0.42	0
bin	-0.4	0
bin	-0.38	0
bin	-0.36	0
bin	-0.34	0
bin	-0.32	0
bin	-0.3	0
bin	-0.28	0
bin	-0.26	0
bin	-0.24	0
bin	-0.22	0
bin	-0.2	0
bin	-0.18	0
bin	-0.16	0
bin	-0.14	0
bin	-0.12	0
bin	-0.1	0
bin	-0.08	0
bin	-0.06	0
bin	-0.04	0
bin	-0.02	0
bin	0	341
bin	0.02	0
bin	0.04	0
bin	0.06	0
bin	0.08	0
bin	0.1	0
bin	0.12	0
bin	0.14	0
bin	0.16	0
bin	0.18	0
bin	0.2	0
bin	0.22	0
bin	0.24	0
bin	0.26	0
bin	0.28	0
bin	0.3	0
bin	0.32	0
bin	0.34	0
bin	0.36	0
bin	0.38	0
bin	0.4	0
bin	0.42	0
bin	0.44	0
bin	0.46	0
bin	0.48	0
bin	0.5	0
scalar WiredMeshNetwork.host1.eth[1].queue outgoingPackets:count 341
attr recordingmode count
attr source packetPulled
attr title "outgoing packets, count"
attr unit pk
scalar WiredMeshNetwork.host1.eth[1].queue outgoingPacketLengths:sum 2853488
attr interpolationmode none
attr recordingmode sum
attr source packetLength(packetPulled)
attr title "outgoing packet lengths, sum"
attr unit b
statistic WiredMeshNetwork.host1.eth[1].queue outgoingPacketLengths:histogram
field count 341
field mean 8368
field stddev 0
field min 8368
field max 8368
field sum 2853488
field sqrsum 23877987584
attr interpolationmode none
attr recordingmode histogram
attr source packetLength(packetPulled)
attr title "outgoing packet lengths"
attr unit b
bin	-inf	0
bin	8367	0
bin	8368	341
bin	8369	0
statistic WiredMeshNetwork.host1.eth[1].queue flowQueueingTime:histogram
field count 0
field mean nan
field stddev nan
field min nan
field max nan
field sum 0
field sqrsum 0
attr interpolationmode none
attr recordingmode histogram
attr source queueingTime(demuxFlow(packetPulled))
attr title "flow queueing times"
attr unit s
bin	-inf	0
bin	0	0
bin	1	0
scalar WiredMeshNetwork.host1.eth[1].queue incomingPackets:count 341
attr recordingmode count
attr source packetPushStarted
attr title "incoming packets, count"
attr unit pk
scalar WiredMeshNetwork.host1.eth[1].queue incomingPacketLengths:sum 2853488
attr interpolationmode none
attr recordingmode sum
attr source packetLength(packetPushStarted)
attr title "incoming packet lengths, sum"
attr unit b
statistic WiredMeshNetwork.host1.eth[1].queue incomingPacketLengths:histogram
field count 341
field mean 8368
field stddev 0
field min 8368
field max 8368
field sum 2853488
field sqrsum 23877987584
attr interpolationmode none
attr recordingmode histogram
attr source packetLength(packetPushStarted)
attr title "incoming packet lengths"
attr unit b
bin	-inf	0
bin	8367	0
bin	8368	341
bin	8369	0
scalar WiredMeshNetwork.host1.eth[1].queue droppedPacketsQueueOverflow:count 0
attr interpolationmode none
attr recordingmode count
attr source packetDropReasonIsQueueOverflow(packetDropped)
attr title "dropped packets: queue overflow, count"
attr unit pk
scalar WiredMeshNetwork.host1.eth[1].queue droppedPacketLengthsQueueOverflow:sum 0
attr interpolationmode none
attr recordingmode sum
attr source packetLength(packetDropReasonIsQueueOverflow(packetDropped))
attr title "dropped packet lengths: queue overflow, sum"
attr unit b
par WiredMeshNetwork.host1.eth[1].mac typename "\"inet.linklayer.ethernet.basic.EthernetMac\""
par WiredMeshNetwork.host1.eth[1].mac interfaceTableModule "\"WiredMeshNetwork.host1.interfaceTable\""
par WiredMeshNetwork.host1.eth[1].mac displayStringTextFormat "\"rate: %b\\nsent: %s, rcvd: %r\\nqueue: %q, drop: %d\""
par WiredMeshNetwork.host1.eth[1].mac sendRawBytes false
par WiredMeshNetwork.host1.eth[1].mac promiscuous false
par WiredMeshNetwork.host1.eth[1].mac duplexMode true
par WiredMeshNetwork.host1.eth[1].mac mtu 1500B
attr unit B
par WiredMeshNetwork.host1.eth[1].mac fcsMode "\"declared\""
attr enum declared,computed
par WiredMeshNetwork.host1.eth[1].mac stopOperationExtraTime -1s
attr unit s
par WiredMeshNetwork.host1.eth[1].mac stopOperationTimeout 2s
attr unit s
scalar WiredMeshNetwork.host1.eth[1].mac "simulated time" 20
scalar WiredMeshNetwork.host1.eth[1].mac full-duplex 1
scalar WiredMeshNetwork.host1.eth[1].mac "frames/sec sent" 17.05
scalar WiredMeshNetwork.host1.eth[1].mac "frames/sec rcvd" 17.65
scalar WiredMeshNetwork.host1.eth[1].mac "bits/sec sent" 142674.4
scalar WiredMeshNetwork.host1.eth[1].mac "bits/sec rcvd" 147695.2
scalar WiredMeshNetwork.host1.eth[1].mac "rx channel idle (%)" 99.8511752
scalar WiredMeshNetwork.host1.eth[1].mac "rx channel utilization (%)" 0.1488248
scalar WiredMeshNetwork.host1.eth[1].mac txPk:count 341
attr interpolationmode none
attr recordingmode count
attr source packetSentToLower
attr title "packets transmitted, count"
scalar WiredMeshNetwork.host1.eth[1].mac txPk:sum(packetBytes) 356686
attr interpolationmode none
attr recordingmode sum(packetBytes)
attr source packetSentToLower
attr title "packets transmitted, sum(packetBytes)"
scalar WiredMeshNetwork.host1.eth[1].mac packetReceivedFromUpper:count 341
attr interpolationmode none
attr recordingmode count
attr source packetReceivedFromUpper
attr title "packet bytes from higher layer, count"
scalar WiredMeshNetwork.host1.eth[1].mac packetReceivedFromUpper:sum(packetBytes) 356686
attr interpolationmode none
attr recordingmode sum(packetBytes)
attr source packetReceivedFromUpper
attr title "packet bytes from higher layer, sum(packetBytes)"
scalar WiredMeshNetwork.host1.eth[1].mac passedUpPk:count 353
attr interpolationmode none
attr recordingmode count
attr source packetSentToUpper
attr title "packets passed to higher layer, count"
scalar WiredMeshNetwork.host1.eth[1].mac passedUpPk:sum(packetBytes) 369238
attr interpolationmode none
attr recordingmode sum(packetBytes)
attr source packetSentToUpper
attr title "packets passed to higher layer, sum(packetBytes)"
scalar WiredMeshNetwork.host1.eth[1].mac packetDropIncorrectlyReceived:count 0
attr interpolationmode none
attr recordingmode count
attr source packetDropReasonIsIncorrectlyReceived(packetDropped)
attr title "packet drop: incorrectly received, count"
scalar WiredMeshNetwork.host1.eth[1].mac packetDropIncorrectlyReceived:sum(packetBytes) 0
attr interpolationmode none
attr recordingmode sum(packetBytes)
attr source packetDropReasonIsIncorrectlyReceived(packetDropped)
attr title "packet drop: incorrectly received, sum(packetBytes)"
scalar WiredMeshNetwork.host1.eth[1].mac packetDropInterfaceDown:count 0
attr interpolationmode none
attr recordingmode count
attr source packetDropReasonIsInterfaceDown(packetDropped)
attr title "packet drop: interface down, count"
scalar WiredMeshNetwork.host1.eth[1].mac packetDropInterfaceDown:sum(packetBytes) 0
attr interpolationmode none
attr recordingmode sum(packetBytes)
attr source packetDropReasonIsInterfaceDown(packetDropped)
attr title "packet drop: interface down, sum(packetBytes)"
scalar WiredMeshNetwork.host1.eth[1].mac packetDropNotAddressedToUs:count 0
attr interpolationmode none
attr recordingmode count
attr source packetDropReasonIsNotAddressedToUs(packetDropped)
attr title "packet drop: not addressed to us, count"
scalar WiredMeshNetwork.host1.eth[1].mac packetDropNotAddressedToUs:sum(packetBytes) 0
attr interpolationmode none
attr recordingmode sum(packetBytes)
attr source packetDropReasonIsNotAddressedToUs(packetDropped)
attr title "packet drop: not addressed to us, sum(packetBytes)"
scalar WiredMeshNetwork.host1.eth[1].mac rxPausePkUnits:count 0
attr interpolationmode none
attr recordingmode count
attr title "pause units received, count"
scalar WiredMeshNetwork.host1.eth[1].mac rxPausePkUnits:sum 0
attr interpolationmode none
attr recordingmode sum
attr title "pause units received, sum"
scalar WiredMeshNetwork.host1.eth[1].mac txPausePkUnits:count 0
attr interpolationmode none
attr recordingmode count
attr title "pause units sent, count"
scalar WiredMeshNetwork.host1.eth[1].mac txPausePkUnits:sum 0
attr interpolationmode none
attr recordingmode sum
attr title "pause units sent, sum"
scalar WiredMeshNetwork.host1.eth[1].mac rxPkOk:count 353
attr interpolationmode none
attr recordingmode count
attr source rxPkOk
attr title "packets received OK, count"
scalar WiredMeshNetwork.host1.eth[1].mac rxPkOk:sum(packetBytes) 369238
attr interpolationmode none
attr recordingmode sum(packetBytes)
attr source rxPkOk
attr title "packets received OK, sum(packetBytes)"
par WiredMeshNetwork.host1.eth[1] typename "\"inet.linklayer.ethernet.EthernetInterface\""
par WiredMeshNetwork.host1.eth[1] displayStringTextFormat "\"%a (%i)\\n%m\""
par WiredMeshNetwork.host1.eth[1] recordPcap false
par WiredMeshNetwork.host1.eth[1] numPcapRecorders 0
par WiredMeshNetwork.host1.eth[1] interfaceTableModule "\"WiredMeshNetwork.host1.interfaceTable\""
par WiredMeshNetwork.host1.eth[1] protocol "\"ethernetmac\""
par WiredMeshNetwork.host1.eth[1] address "\"0A-AA-00-00-00-02\""
attr mutable ""
par WiredMeshNetwork.host1.eth[1] duplexMode true
par WiredMeshNetwork.host1.eth[1] csmacdSupport false
par WiredMeshNetwork.host1.eth[1] bitrate 1e+08bps
attr unit bps
par WiredMeshNetwork.host1.eth[1] fcsMode "\"declared\""
attr enum declared,computed
scalar WiredMeshNetwork.host1.eth[1] packetDropInterfaceDown:count 0
attr interpolationmode none
attr recordingmode count
attr source packetDropReasonIsInterfaceDown(packetDropped)
attr title "packet drops: interface down, count"
scalar WiredMeshNetwork.host1.eth[1] packetDropInterfaceDown:sum(packetBytes) 0
attr interpolationmode none
attr recordingmode sum(packetBytes)
attr source packetDropReasonIsInterfaceDown(packetDropped)
attr title "packet drops: interface down, sum(packetBytes)"
scalar WiredMeshNetwork.host1.eth[1] packetDropNoCarrier:count 0
attr interpolationmode none
attr recordingmode count
attr source packetDropReasonIsNoCarrier(packetDropped)
attr title "packet drops: no carrier, count"
scalar WiredMeshNetwork.host1.eth[1] packetDropNoCarrier:sum(packetBytes) 0
attr interpolationmode none
attr recordingmode sum(packetBytes)
attr source packetDropReasonIsNoCarrier(packetDropped)
attr title "packet drops: no carrier, sum(packetBytes)"
par WiredMeshNetwork.host1.eth[2].mac.phys$o.channel typename "\"ned.IdealChannel\""
par WiredMeshNetwork.host1.eth[2].phys$i.channel typename "\"ned.IdealChannel\""
par WiredMeshNetwork.host1.eth[2].upperLayerIn.channel typename "\"ned.IdealChannel\""
par WiredMeshNetwork.host1.eth[2].mac.upperLayerOut.channel typename "\"ned.IdealChannel\""
par WiredMeshNetwork.host1.eth[2].queue typename "\"inet.linklayer.ethernet.common.EthernetQueue\""
par WiredMeshNetwork.host1.eth[2].queue displayStringTextFormat "\"contains %p pk (%l) pushed %u\\npulled %o removed %r dropped %d\""
par WiredMeshNetwork.host1.eth[2].queue packetCapacity 1000
par WiredMeshNetwork.host1.eth[2].queue dataCapacity -1b
attr unit b
par WiredMeshNetwork.host1.eth[2].queue dropperClass "\"inet::queueing::PacketAtCollectionEndDropper\""
par WiredMeshNetwork.host1.eth[2].queue comparatorClass "\"inet::EthernetFrameTypeComparator\""
par WiredMeshNetwork.host1.eth[2].queue bufferModule "\"\""
scalar WiredMeshNetwork.host1.eth[2].queue queueLength:last 0
attr autoWarmupFilter false
attr interpolationmode sample-hold
attr recordingmode last
attr source "warmup(atomic(constant0(packetPushEnded) + count(packetPushStarted) - count(packetPulled) - count(packetRemoved) - count(packetDropped)))"
attr title "queue length, last"
attr unit pk
scalar WiredMeshNetwork.host1.eth[2].queue queueLength:max 0
attr autoWarmupFilter false
attr interpolationmode sample-hold
attr recordingmode max
attr source "warmup(atomic(constant0(packetPushEnded) + count(packetPushStarted) - count(packetPulled) - count(packetRemoved) - count(packetDropped)))"
attr title "queue length, max"
attr unit pk
scalar WiredMeshNetwork.host1.eth[2].queue queueLength:timeavg 0
attr autoWarmupFilter false
attr interpolationmode sample-hold
attr recordingmode timeavg
attr source "warmup(atomic(constant0(packetPushEnded) + count(packetPushStarted) - count(packetPulled) - count(packetRemoved) - count(packetDropped)))"
attr title "queue length, timeavg"
attr unit pk
scalar WiredMeshNetwork.host1.eth[2].queue queueBitLength:last 0
attr autoWarmupFilter false
attr interpolationmode sample-hold
attr recordingmode last
attr source "warmup(atomic(constant0(packetPushEnded) + sum(packetLength(packetPushStarted)) - sum(packetLength(packetPulled)) - sum(packetLength(packetRemoved)) - sum(packetLength(packetDropped))))"
attr title "queue bit length, last"
attr unit b
scalar WiredMeshNetwork.host1.eth[2].queue queueBitLength:max 0
attr autoWarmupFilter false
attr interpolationmode sample-hold
attr recordingmode max
attr source "warmup(atomic(constant0(packetPushEnded) + sum(packetLength(packetPushStarted)) - sum(packetLength(packetPulled)) - sum(packetLength(packetRemoved)) - sum(packetLength(packetDropped))))"
attr title "queue bit length, max"
attr unit b
scalar WiredMeshNetwork.host1.eth[2].queue queueBitLength:timeavg 0
attr autoWarmupFilter false
attr interpolationmode sample-hold
attr recordingmode timeavg
attr source "warmup(atomic(constant0(packetPushEnded) + sum(packetLength(packetPushStarted)) - sum(packetLength(packetPulled)) - sum(packetLength(packetRemoved)) - sum(packetLength(packetDropped))))"
attr title "queue bit length, timeavg"
attr unit b
statistic WiredMeshNetwork.host1.eth[2].queue queueingTime:histogram
field count 337
field mean 0
field stddev 0
field min 0
field max 0
field sum 0
field sqrsum 0
attr interpolationmode none
attr recordingmode histogram
attr source queueingTime(packetPulled)
attr title "queueing times"
attr unit s
bin	-inf	0
bin	-0.5	0
bin	-0.48	0
bin	-0.46	0
bin	-0.44	0
bin	-0.42	0
bin	-0.4	0
bin	-0.38	0
bin	-0.36	0
bin	-0.34	0
bin	-0.32	0
bin	-0.3	0
bin	-0.28	0
bin	-0.26	0
bin	-0.24	0
bin	-0.22	0
bin	-0.2	0
bin	-0.18	0
bin	-0.16	0
bin	-0.14	0
bin	-0.12	0
bin	-0.1	0
bin	-0.08	0
bin	-0.06	0
bin	-0.04	0
bin	-0.02	0
bin	0	337
bin	0.02	0
bin	0.04	0
bin	0.06	0
bin	0.08	0
bin	0.1	0
bin	0.12	0
bin	0.14	0
bin	0.16	0
bin	0.18	0
bin	0.2	0
bin	0.22	0
bin	0.24	0
bin	0.26	0
bin	0.28	0
bin	0.3	0
bin	0.32	0
bin	0.34	0
bin	0.36	0
bin	0.38	0
bin	0.4	0
bin	0.42	0
bin	0.44	0
bin	0.46	0
bin	0.48	0
bin	0.5	0
scalar WiredMeshNetwork.host1.eth[2].queue outgoingPackets:count 337
attr recordingmode count
attr source packetPulled
attr title "outgoing packets, count"
attr unit pk
scalar WiredMeshNetwork.host1.eth[2].queue outgoingPacketLengths:sum 2820016
attr interpolationmode none
attr recordingmode sum
attr source packetLength(packetPulled)
attr title "outgoing packet lengths, sum"
attr unit b
statistic WiredMeshNetwork.host1.eth[2].queue outgoingPacketLengths:histogram
field count 337
field mean 8368
field stddev 0
field min 8368
field max 8368
field sum 2820016
field sqrsum 23597893888
attr interpolationmode none
attr recordingmode histogram
attr source packetLength(packetPulled)
attr title "outgoing packet lengths"
attr unit b
bin	-inf	0
bin	8367	0
bin	8368	337
bin	8369	0
statistic WiredMeshNetwork.host1.eth[2].queue flowQueueingTime:histogram
field count 0
field mean nan
field stddev nan
field min nan
field max nan
field sum 0
field sqrsum 0
attr interpolationmode none
attr recordingmode histogram
attr source queueingTime(demuxFlow(packetPulled))
attr title "flow queueing times"
attr unit s
bin	-inf	0
bin	0	0
bin	1	0
scalar WiredMeshNetwork.host1.eth[2].queue incomingPackets:count 337
attr recordingmode count
attr source packetPushStarted
attr title "incoming packets, count"
attr unit pk
scalar WiredMeshNetwork.host1.eth[2].queue incomingPacketLengths:sum 2820016
attr interpolationmode none
attr recordingmode sum
attr source packetLength(packetPushStarted)
attr title "incoming packet lengths, sum"
attr unit b
statistic WiredMeshNetwork.host1.eth[2].queue incomingPacketLengths:histogram
field count 337
field mean 8368
field stddev 0
field min 8368
field max 8368
field sum 2820016
field sqrsum 23597893888
attr interpolationmode none
attr recordingmode histogram
attr source packetLength(packetPushStarted)
attr title "incoming packet lengths"
attr unit b
bin	-inf	0
bin	8367	0
bin	8368	337
bin	8369	0
scalar WiredMeshNetwork.host1.eth[2].queue droppedPacketsQueueOverflow:count 0
attr interpolationmode none
attr recordingmode count
attr source packetDropReasonIsQueueOverflow(packetDropped)
attr title "dropped packets: queue overflow, count"
attr unit pk
scalar WiredMeshNetwork.host1.eth[2].queue droppedPacketLengthsQueueOverflow:sum 0
attr interpolationmode none
attr recordingmode sum
attr source packetLength(packetDropReasonIsQueueOverflow(packetDropped))
attr title "dropped packet lengths: queue overflow, sum"
attr unit b
par WiredMeshNetwork.host1.eth[2].mac typename "\"inet.linklayer.ethernet.basic.EthernetMac\""
par WiredMeshNetwork.host1.eth[2].mac interfaceTableModule "\"WiredMeshNetwork.host1.interfaceTable\""
par WiredMeshNetwork.host1.eth[2].mac displayStringTextFormat "\"rate: %b\\nsent: %s, rcvd: %r\\nqueue: %q, drop: %d\""
par WiredMeshNetwork.host1.eth[2].mac sendRawBytes false
par WiredMeshNetwork.host1.eth[2].mac promiscuous false
par WiredMeshNetwork.host1.eth[2].mac duplexMode true
par WiredMeshNetwork.host1.eth[2].mac mtu 1500B
attr unit B
par WiredMeshNetwork.host1.eth[2].mac fcsMode "\"declared\""
attr enum declared,computed
par WiredMeshNetwork.host1.eth[2].mac stopOperationExtraTime -1s
attr unit s
par WiredMeshNetwork.host1.eth[2].mac stopOperationTimeout 2s
attr unit s
scalar WiredMeshNetwork.host1.eth[2].mac "simulated time" 20
scalar WiredMeshNetwork.host1.eth[2].mac full-duplex 1
scalar WiredMeshNetwork.host1.eth[2].mac "frames/sec sent" 16.85
scalar WiredMeshNetwork.host1.eth[2].mac "frames/sec rcvd" 17.7
scalar WiredMeshNetwork.host1.eth[2].mac "bits/sec sent" 141000.8
scalar WiredMeshNetwork.host1.eth[2].mac "bits/sec rcvd" 148113.6
scalar WiredMeshNetwork.host1.eth[2].mac "rx channel idle (%)" 99.8507536
scalar WiredMeshNetwork.host1.eth[2].mac "rx channel utilization (%)" 0.1492464
scalar WiredMeshNetwork.host1.eth[2].mac txPk:count 337
attr interpolationmode none
attr recordingmode count
attr source packetSentToLower
attr title "packets transmitted, count"
scalar WiredMeshNetwork.host1.eth[2].mac txPk:sum(packetBytes) 352502
attr interpolationmode none
attr recordingmode sum(packetBytes)
attr source packetSentToLower
attr title "packets transmitted, sum(packetBytes)"
scalar WiredMeshNetwork.host1.eth[2].mac packetReceivedFromUpper:count 337
attr interpolationmode none
attr recordingmode count
attr source packetReceivedFromUpper
attr title "packet bytes from higher layer, count"
scalar WiredMeshNetwork.host1.eth[2].mac packetReceivedFromUpper:sum(packetBytes) 352502
attr interpolationmode none
attr recordingmode sum(packetBytes)
attr source packetReceivedFromUpper
attr title "packet bytes from higher layer, sum(packetBytes)"
scalar WiredMeshNetwork.host1.eth[2].mac passedUpPk:count 354
attr interpolationmode none
attr recordingmode count
attr source packetSentToUpper
attr title "packets passed to higher layer, count"
scalar WiredMeshNetwork.host1.eth[2].mac passedUpPk:sum(packetBytes) 370284
attr interpolationmode none
attr recordingmode sum(packetBytes)
attr source packetSentToUpper
attr title "packets passed to higher layer, sum(packetBytes)"
scalar WiredMeshNetwork.host1.eth[2].mac packetDropIncorrectlyReceived:count 0
attr interpolationmode none
attr recordingmode count
attr source packetDropReasonIsIncorrectlyReceived(packetDropped)
attr title "packet drop: incorrectly received, count"
scalar WiredMeshNetwork.host1.eth[2].mac packetDropIncorrectlyReceived:sum(packetBytes) 0
attr interpolationmode none
attr recordingmode sum(packetBytes)
attr source packetDropReasonIsIncorrectlyReceived(packetDropped)
attr title "packet drop: incorrectly received, sum(packetBytes)"
scalar WiredMeshNetwork.host1.eth[2].mac packetDropInterfaceDown:count 0
attr interpolationmode none
attr recordingmode count
attr source packetDropReasonIsInterfaceDown(packetDropped)
attr title "packet drop: interface down, count"
scalar WiredMeshNetwork.host1.eth[2].mac packetDropInterfaceDown:sum(packetBytes) 0
attr interpolationmode none
attr recordingmode sum(packetBytes)
attr source packetDropReasonIsInterfaceDown(packetDropped)
attr title "packet drop: interface down, sum(packetBytes)"
scalar WiredMeshNetwork.host1.eth[2].mac packetDropNotAddressedToUs:count 0
attr interpolationmode none
attr recordingmode count
attr source packetDropReasonIsNotAddressedToUs(packetDropped)
attr title "packet drop: not addressed to us, count"
scalar WiredMeshNetwork.host1.eth[2].mac packetDropNotAddressedToUs:sum(packetBytes) 0
attr interpolationmode none
attr recordingmode sum(packetBytes)
attr source packetDropReasonIsNotAddressedToUs(packetDropped)
attr title "packet drop: not addressed to us, sum(packetBytes)"
scalar WiredMeshNetwork.host1.eth[2].mac rxPausePkUnits:count 0
attr interpolationmode none
attr recordingmode count
attr title "pause units received, count"
scalar WiredMeshNetwork.host1.eth[2].mac rxPausePkUnits:sum 0
attr interpolationmode none
attr recordingmode sum
attr title "pause units received, sum"
scalar WiredMeshNetwork.host1.eth[2].mac txPausePkUnits:count 0
attr interpolationmode none
attr recordingmode count
attr title "pause units sent, count"
scalar WiredMeshNetwork.host1.eth[2].mac txPausePkUnits:sum 0
attr interpolationmode none
attr recordingmode sum
attr title "pause units sent, sum"
scalar WiredMeshNetwork.host1.eth[2].mac rxPkOk:count 354
attr interpolationmode none
attr recordingmode count
attr source rxPkOk
attr title "packets received OK, count"
scalar WiredMeshNetwork.host1.eth[2].mac rxPkOk:sum(packetBytes) 370284
attr interpolationmode none
attr recordingmode sum(packetBytes)
attr source rxPkOk
attr title "packets received OK, sum(packetBytes)"
par WiredMeshNetwork.host1.eth[2] typename "\"inet.linklayer.ethernet.EthernetInterface\""
par WiredMeshNetwork.host1.eth[2] displayStringTextFormat "\"%a (%i)\\n%m\""
par WiredMeshNetwork.host1.eth[2] recordPcap false
par WiredMeshNetwork.host1.eth[2] numPcapRecorders 0
par WiredMeshNetwork.host1.eth[2] interfaceTableModule "\"WiredMeshNetwork.host1.interfaceTable\""
par WiredMeshNetwork.host1.eth[2] protocol "\"ethernetmac\""
par WiredMeshNetwork.host1.eth[2] address "\"0A-AA-00-00-00-03\""
attr mutable ""
par WiredMeshNetwork.host1.eth[2] duplexMode true
par WiredMeshNetwork.host1.eth[2] csmacdSupport false
par WiredMeshNetwork.host1.eth[2] bitrate 1e+08bps
attr unit bps
par WiredMeshNetwork.host1.eth[2] fcsMode "\"declared\""
attr enum declared,computed
scalar WiredMeshNetwork.host1.eth[2] packetDropInterfaceDown:count 0
attr interpolationmode none
attr recordingmode count
attr source packetDropReasonIsInterfaceDown(packetDropped)
attr title "packet drops: interface down, count"
scalar WiredMeshNetwork.host1.eth[2] packetDropInterfaceDown:sum(packetBytes) 0
attr interpolationmode none
attr recordingmode sum(packetBytes)
attr source packetDropReasonIsInterfaceDown(packetDropped)
attr title "packet drops: interface down, sum(packetBytes)"
scalar WiredMeshNetwork.host1.eth[2] packetDropNoCarrier:count 0
attr interpolationmode none
attr recordingmode count
attr source packetDropReasonIsNoCarrier(packetDropped)
attr title "packet drops: no carrier, count"
scalar WiredMeshNetwork.host1.eth[2] packetDropNoCarrier:sum(packetBytes) 0
attr interpolationmode none
attr recordingmode sum(packetBytes)
attr source packetDropReasonIsNoCarrier(packetDropped)
attr title "packet drops: no carrier, sum(packetBytes)"
par WiredMeshNetwork.host1.eth[3].mac.phys$o.channel typename "\"ned.IdealChannel\""
par WiredMeshNetwork.host1.eth[3].phys$i.channel typename "\"ned.IdealChannel\""
par WiredMeshNetwork.host1.eth[3].upperLayerIn.channel typename "\"ned.IdealChannel\""
par WiredMeshNetwork.host1.eth[3].mac.upperLayerOut.channel typename "\"ned.IdealChannel\""
par WiredMeshNetwork.host1.eth[3].queue typename "\"inet.linklayer.ethernet.common.EthernetQueue\""
par WiredMeshNetwork.host1.eth[3].queue displayStringTextFormat "\"contains %p pk (%l) pushed %u\\npulled %o removed %r dropped %d\""
par WiredMeshNetwork.host1.eth[3].queue packetCapacity 1000
par WiredMeshNetwork.host1.eth[3].queue dataCapacity -1b
attr unit b
par WiredMeshNetwork.host1.eth[3].queue dropperClass "\"inet::queueing::PacketAtCollectionEndDropper\""
par WiredMeshNetwork.host1.eth[3].queue comparatorClass "\"inet::EthernetFrameTypeComparator\""
par WiredMeshNetwork.host1.eth[3].queue bufferModule "\"\""
scalar WiredMeshNetwork.host1.eth[3].queue queueLength:last 0
attr autoWarmupFilter false
attr interpolationmode sample-hold
attr recordingmode last
attr source "warmup(atomic(constant0(packetPushEnded) + count(packetPushStarted) - count(packetPulled) - count(packetRemoved) - count(packetDropped)))"
attr title "queue length, last"
attr unit pk
scalar WiredMeshNetwork.host1.eth[3].queue queueLength:max 1
attr autoWarmupFilter false
attr interpolationmode sample-hold
attr recordingmode max
attr source "warmup(atomic(constant0(packetPushEnded) + count(packetPushStarted) - count(packetPulled) - count(packetRemoved) - count(packetDropped)))"
attr title "queue length, max"
attr unit pk
scalar WiredMeshNetwork.host1.eth[3].queue queueLength:timeavg 1.16422835e-06
attr autoWarmupFilter false
attr interpolationmode sample-hold
attr recordingmode timeavg
attr source "warmup(atomic(constant0(packetPushEnded) + count(packetPushStarted) - count(packetPulled) - count(packetRemoved) - count(packetDropped)))"
attr title "queue length, timeavg"
attr unit pk
scalar WiredMeshNetwork.host1.eth[3].queue queueBitLength:last 0
attr autoWarmupFilter false
attr interpolationmode sample-hold
attr recordingmode last
attr source "warmup(atomic(constant0(packetPushEnded) + sum(packetLength(packetPushStarted)) - sum(packetLength(packetPulled)) - sum(packetLength(packetRemoved)) - sum(packetLength(packetDropped))))"
attr title "queue bit length, last"
attr unit b
scalar WiredMeshNetwork.host1.eth[3].queue queueBitLength:max 8368
attr autoWarmupFilter false
attr interpolationmode sample-hold
attr recordingmode max
attr source "warmup(atomic(constant0(packetPushEnded) + sum(packetLength(packetPushStarted)) - sum(packetLength(packetPulled)) - sum(packetLength(packetRemoved)) - sum(packetLength(packetDropped))))"
attr title "queue bit length, max"
attr unit b
scalar WiredMeshNetwork.host1.eth[3].queue queueBitLength:timeavg 0.0097422628328
attr autoWarmupFilter false
attr interpolationmode sample-hold
attr recordingmode timeavg
attr source "warmup(atomic(constant0(packetPushEnded) + sum(packetLength(packetPushStarted)) - sum(packetLength(packetPulled)) - sum(packetLength(packetRemoved)) - sum(packetLength(packetDropped))))"
attr title "queue bit length, timeavg"
attr unit b
statistic WiredMeshNetwork.host1.eth[3].queue queueingTime:histogram
field count 344
field mean 6.7687694767442e-08
field stddev 1.2554197162256e-06
field min 0
field max 2.3284567e-05
field sum 2.3284567e-05
field sqrsum 5.4217106037749e-10
attr interpolationmode none
attr recordingmode histogram
attr source queueingTime(packetPulled)
attr title "queueing times"
attr unit s
bin	-inf	0
bin	0	343
bin	5e-07	0
bin	1e-06	0
bin	1.5e-06	0
bin	2e-06	0
bin	2.5e-06	0
bin	3e-06	0
bin	3.5e-06	0
bin	4e-06	0
bin	4.5e-06	0
bin	5e-06	0
bin	5.5e-06	0
bin	6e-06	0
bin	6.5e-06	0
bin	7e-06	0
bin	7.5e-06	0
bin	8e-06	0
bin	8.5e-06	0
bin	9e-06	0
bin	9.5e-06	0
bin	1e-05	0
bin	1.05e-05	0
bin	1.1e-05	0
bin	1.15e-05	0
bin	1.2e-05	0
bin	1.25e-05	0
bin	1.3e-05	0
bin	1.35e-05	0
bin	1.4e-05	0
bin	1.45e-05	0
bin	1.5e-05	0
bin	1.55e-05	0
bin	1.6e-05	0
bin	1.65e-05	0
bin	1.7e-05	0
bin	1.75e-05	0
bin	1.8e-05	0
bin	1.85e-05	0
bin	1.9e-05	0
bin	1.95e-05	0
bin	2e-05	0
bin	2.05e-05	0
bin	2.1e-05	0
bin	2.15e-05	0
bin	2.2e-05	0
bin	2.25e-05	0
bin	2.3e-05	1
bin	2.35e-05	0
bin	2.4e-05	0
bin	2.45e-05	0
bin	2.5e-05	0
bin	2.55e-05	0
bin	2.6e-05	0
bin	2.65e-05	0
bin	2.7e-05	0
bin	2.75e-05	0
bin	2.8e-05	0
bin	2.85e-05	0
bin	2.9e-05	0
bin	2.95e-05	0
scalar WiredMeshNetwork.host1.eth[3].queue outgoingPackets:count 344
attr recordingmode count
attr source packetPulled
attr title "outgoing packets, count"
attr unit pk
scalar WiredMeshNetwork.host1.eth[3].queue outgoingPacketLengths:sum 2878592
attr interpolationmode none
attr recordingmode sum
attr source packetLength(packetPulled)
attr title "outgoing packet lengths, sum"
attr unit b
statistic WiredMeshNetwork.host1.eth[3].queue outgoingPacketLengths:histogram
field count 344
field mean 8368
field stddev 0
field min 8368
field max 8368
field sum 2878592
field sqrsum 24088057856
attr interpolationmode none
attr recordingmode histogram
attr source packetLength(packetPulled)
attr title "outgoing packet lengths"
attr unit b
bin	-inf	0
bin	8367	0
bin	8368	344
bin	8369	0
statistic WiredMeshNetwork.host1.eth[3].queue flowQueueingTime:histogram
field count 0
field mean nan
field stddev nan
field min nan
field max nan
field sum 0
field sqrsum 0
attr interpolationmode none
attr recordingmode histogram
attr source queueingTime(demuxFlow(packetPulled))
attr title "flow queueing times"
attr unit s
bin	-inf	0
bin	0	0
bin	1	0
scalar WiredMeshNetwork.host1.eth[3].queue incomingPackets:count 344
attr recordingmode count
attr source packetPushStarted
attr title "incoming packets, count"
attr unit pk
scalar WiredMeshNetwork.host1.eth[3].queue incomingPacketLengths:sum 2878592
attr interpolationmode none
attr recordingmode sum
attr source packetLength(packetPushStarted)
attr title "incoming packet lengths, sum"
attr unit b
statistic WiredMeshNetwork.host1.eth[3].queue incomingPacketLengths:histogram
field count 344
field mean 8368
field stddev 0
field min 8368
field max 8368
field sum 2878592
field sqrsum 24088057856
attr interpolationmode none
attr recordingmode histogram
attr source packetLength(packetPushStarted)
attr title "incoming packet lengths"
attr unit b
bin	-inf	0
bin	8367	0
bin	8368	344
bin	8369	0
scalar WiredMeshNetwork.host1.eth[3].queue droppedPacketsQueueOverflow:count 0
attr interpolationmode none
attr recordingmode count
attr source packetDropReasonIsQueueOverflow(packetDropped)
attr title "dropped packets: queue overflow, count"
attr unit pk
scalar WiredMeshNetwork.host1.eth[3].queue droppedPacketLengthsQueueOverflow:sum 0
attr interpolationmode none
attr recordingmode sum
attr source packetLength(packetDropReasonIsQueueOverflow(packetDropped))
attr title "dropped packet lengths: queue overflow, sum"
attr unit b
par WiredMeshNetwork.host1.eth[3].mac typename "\"inet.linklayer.ethernet.basic.EthernetMac\""
par WiredMeshNetwork.host1.eth[3].mac interfaceTableModule "\"WiredMeshNetwork.host1.interfaceTable\""
par WiredMeshNetwork.host1.eth[3].mac displayStringTextFormat "\"rate: %b\\nsent: %s, rcvd: %r\\nqueue: %q, drop: %d\""
par WiredMeshNetwork.host1.eth[3].mac sendRawBytes false
par WiredMeshNetwork.host1.eth[3].mac promiscuous false
par WiredMeshNetwork.host1.eth[3].mac duplexMode true
par WiredMeshNetwork.host1.eth[3].mac mtu 1500B
attr unit B
par WiredMeshNetwork.host1.eth[3].mac fcsMode "\"declared\""
attr enum declared,computed
par WiredMeshNetwork.host1.eth[3].mac stopOperationExtraTime -1s
attr unit s
par WiredMeshNetwork.host1.eth[3].mac stopOperationTimeout 2s
attr unit s
scalar WiredMeshNetwork.host1.eth[3].mac "simulated time" 20
scalar WiredMeshNetwork.host1.eth[3].mac full-duplex 1
scalar WiredMeshNetwork.host1.eth[3].mac "frames/sec sent" 17.2
scalar WiredMeshNetwork.host1.eth[3].mac "frames/sec rcvd" 16.9
scalar WiredMeshNetwork.host1.eth[3].mac "bits/sec sent" 143929.6
scalar WiredMeshNetwork.host1.eth[3].mac "bits/sec rcvd" 141419.2
scalar WiredMeshNetwork.host1.eth[3].mac "rx channel idle (%)" 99.8574992
scalar WiredMeshNetwork.host1.eth[3].mac "rx channel utilization (%)" 0.1425008
scalar WiredMeshNetwork.host1.eth[3].mac txPk:count 344
attr interpolationmode none
attr recordingmode count
attr source packetSentToLower
attr title "packets transmitted, count"
scalar WiredMeshNetwork.host1.eth[3].mac txPk:sum(packetBytes) 359824
attr interpolationmode none
attr recordingmode sum(packetBytes)
attr source packetSentToLower
attr title "packets transmitted, sum(packetBytes)"
scalar WiredMeshNetwork.host1.eth[3].mac packetReceivedFromUpper:count 344
attr interpolationmode none
attr recordingmode count
attr source packetReceivedFromUpper
attr title "packet bytes from higher layer, count"
scalar WiredMeshNetwork.host1.eth[3].mac packetReceivedFromUpper:sum(packetBytes) 359824
attr interpolationmode none
attr recordingmode sum(packetBytes)
attr source packetReceivedFromUpper
attr title "packet bytes from higher layer, sum(packetBytes)"
scalar WiredMeshNetwork.host1.eth[3].mac passedUpPk:count 338
attr interpolationmode none
attr recordingmode count
attr source packetSentToUpper
attr title "packets passed to higher layer, count"
scalar WiredMeshNetwork.host1.eth[3].mac passedUpPk:sum(packetBytes) 353548
attr interpolationmode none
attr recordingmode sum(packetBytes)
attr source packetSentToUpper
attr title "packets passed to higher layer, sum(packetBytes)"
scalar WiredMeshNetwork.host1.eth[3].mac packetDropIncorrectlyReceived:count 0
attr interpolationmode none
attr recordingmode count
attr source packetDropReasonIsIncorrectlyReceived(packetDropped)
attr title "packet drop: incorrectly received, count"
scalar WiredMeshNetwork.host1.eth[3].mac packetDropIncorrectlyReceived:sum(packetBytes) 0
attr interpolationmode none
attr recordingmode sum(packetBytes)
attr source packetDropReasonIsIncorrectlyReceived(packetDropped)
attr title "packet drop: incorrectly received, sum(packetBytes)"
scalar WiredMeshNetwork.host1.eth[3].mac packetDropInterfaceDown:count 0
attr interpolationmode none
attr recordingmode count
attr source packetDropReasonIsInterfaceDown(packetDropped)
attr title "packet drop: interface down, count"
scalar WiredMeshNetwork.host1.eth[3].mac packetDropInterfaceDown:sum(packetBytes) 0
attr interpolationmode none
attr recordingmode sum(packetBytes)
attr source packetDropReasonIsInterfaceDown(packetDropped)
attr title "packet drop: interface down, sum(packetBytes)"
scalar WiredMeshNetwork.host1.eth[3].mac packetDropNotAddressedToUs:count 0
attr interpolationmode none
attr recordingmode count
attr source packetDropReasonIsNotAddressedToUs(packetDropped)
attr title "packet drop: not addressed to us, count"
scalar WiredMeshNetwork.host1.eth[3].mac packetDropNotAddressedToUs:sum(packetBytes) 0
attr interpolationmode none
attr recordingmode sum(packetBytes)
attr source packetDropReasonIsNotAddressedToUs(packetDropped)
attr title "packet drop: not addressed to us, sum(packetBytes)"
scalar WiredMeshNetwork.host1.eth[3].mac rxPausePkUnits:count 0
attr interpolationmode none
attr recordingmode count
attr title "pause units received, count"
scalar WiredMeshNetwork.host1.eth[3].mac rxPausePkUnits:sum 0
attr interpolationmode none
attr recordingmode sum
attr title "pause units received, sum"
scalar WiredMeshNetwork.host1.eth[3].mac txPausePkUnits:count 0
attr interpolationmode none
attr recordingmode count
attr title "pause units sent, count"
scalar WiredMeshNetwork.host1.eth[3].mac txPausePkUnits:sum 0
attr interpolationmode none
attr recordingmode sum
attr title "pause units sent, sum"
scalar WiredMeshNetwork.host1.eth[3].mac rxPkOk:count 338
attr interpolationmode none
attr recordingmode count
attr source rxPkOk
attr title "packets received OK, count"
scalar WiredMeshNetwork.host1.eth[3].mac rxPkOk:sum(packetBytes) 353548
attr interpolationmode none
attr recordingmode sum(packetBytes)
attr source rxPkOk
attr title "packets received OK, sum(packetBytes)"
par WiredMeshNetwork.host1.eth[3] typename "\"inet.linklayer.ethernet.EthernetInterface\""
par WiredMeshNetwork.host1.eth[3] displayStringTextFormat "\"%a (%i)\\n%m\""
par WiredMeshNetwork.host1.eth[3] recordPcap false
par WiredMeshNetwork.host1.eth[3] numPcapRecorders 0
par WiredMeshNetwork.host1.eth[3] interfaceTableModule "\"WiredMeshNetwork.host1.interfaceTable\""
par WiredMeshNetwork.host1.eth[3] protocol "\"ethernetmac\""
par WiredMeshNetwork.host1.eth[3] address "\"0A-AA-00-00-00-04\""
attr mutable ""
par WiredMeshNetwork.host1.eth[3] duplexMode true
par WiredMeshNetwork.host1.eth[3] csmacdSupport false
par WiredMeshNetwork.host1.eth[3] bitrate 1e+08bps
attr unit bps
par WiredMeshNetwork.host1.eth[3] fcsMode "\"declared\""
attr enum declared,computed
scalar WiredMeshNetwork.host1.eth[3] packetDropInterfaceDown:count 0
attr interpolationmode none
attr recordingmode count
attr source packetDropReasonIsInterfaceDown(packetDropped)
attr title "packet drops: interface down, count"
scalar WiredMeshNetwork.host1.eth[3] packetDropInterfaceDown:sum(packetBytes) 0
attr interpolationmode none
attr recordingmode sum(packetBytes)
attr source packetDropReasonIsInterfaceDown(packetDropped)
attr title "packet drops: interface down, sum(packetBytes)"
scalar WiredMeshNetwork.host1.eth[3] packetDropNoCarrier:count 0
attr interpolationmode none
attr recordingmode count
attr source packetDropReasonIsNoCarrier(packetDropped)
attr title "packet drops: no carrier, count"
scalar WiredMeshNetwork.host1.eth[3] packetDropNoCarrier:sum(packetBytes) 0
attr interpolationmode none
attr recordingmode sum(packetBytes)
attr source packetDropReasonIsNoCarrier(packetDropped)
attr title "packet drops: no carrier, sum(packetBytes)"
par WiredMeshNetwork.host1.ipv4.transportIn.channel typename "\"ned.IdealChannel\""
par WiredMeshNetwork.host1.ipv4.up.out[0].channel typename "\"ned.IdealChannel\""
par WiredMeshNetwork.host1.ipv4.lp.out[2].channel typename "\"ned.IdealChannel\""
par WiredMeshNetwork.host1.ipv4.ifIn.channel typename "\"ned.IdealChannel\""
par WiredMeshNetwork.host1.ipv4.configurator typename "\"inet.networklayer.configurator.ipv4.Ipv4NodeConfigurator\""
par WiredMeshNetwork.host1.ipv4.configurator interfaceTableModule "\"WiredMeshNetwork.host1.interfaceTable\""
par WiredMeshNetwork.host1.ipv4.configurator routingTableModule "\"WiredMeshNetwork.host1.ipv4.routingTable\""
par WiredMeshNetwork.host1.ipv4.configurator networkConfiguratorModule "\"configurator\""
par WiredMeshNetwork.host1.ipv4.configurator configureRoutingTable true
par WiredMeshNetwork.host1.ipv4.routingTable typename "\"inet.networklayer.ipv4.Ipv4RoutingTable\""
par WiredMeshNetwork.host1.ipv4.routingTable interfaceTableModule "\"WiredMeshNetwork.host1.interfaceTable\""
par WiredMeshNetwork.host1.ipv4.routingTable routerId "\"auto\""
par WiredMeshNetwork.host1.ipv4.routingTable netmaskRoutes "\"*\""
par WiredMeshNetwork.host1.ipv4.routingTable forwarding true
par WiredMeshNetwork.host1.ipv4.routingTable multicastForwarding false
par WiredMeshNetwork.host1.ipv4.routingTable useAdminDist false
par WiredMeshNetwork.host1.ipv4.routingTable routingFile "\"\""
par WiredMeshNetwork.host1.ipv4.natTable typename "\"inet.networklayer.ipv4.Ipv4NatTable\""
par WiredMeshNetwork.host1.ipv4.natTable networkProtocolModule "\"^.ip\""
par WiredMeshNetwork.host1.ipv4.natTable config "<config/> at content:1"
par WiredMeshNetwork.host1.ipv4.up typename "\"inet.common.MessageDispatcher\""
par WiredMeshNetwork.host1.ipv4.up displayStringTextFormat "\"processed %p pk (%l)\""
par WiredMeshNetwork.host1.ipv4.up forwardServiceRegistration true
par WiredMeshNetwork.host1.ipv4.up forwardProtocolRegistration true
par WiredMeshNetwork.host1.ipv4.igmp typename "\"inet.networklayer.ipv4.Igmpv2\""
par WiredMeshNetwork.host1.ipv4.igmp interfaceTableModule "\"WiredMeshNetwork.host1.interfaceTable\""
par WiredMeshNetwork.host1.ipv4.igmp routingTableModule "\"WiredMeshNetwork.host1.ipv4.routingTable\""
par WiredMeshNetwork.host1.ipv4.igmp crcMode "\"declared\""
attr enum declared,computed
par WiredMeshNetwork.host1.ipv4.igmp enabled true
par WiredMeshNetwork.host1.ipv4.igmp robustnessVariable 2
par WiredMeshNetwork.host1.ipv4.igmp queryInterval 125s
attr unit s
par WiredMeshNetwork.host1.ipv4.igmp queryResponseInterval 10s
attr unit s
par WiredMeshNetwork.host1.ipv4.igmp groupMembershipInterval 260s
attr unit s
par WiredMeshNetwork.host1.ipv4.igmp otherQuerierPresentInterval 255s
attr unit s
par WiredMeshNetwork.host1.ipv4.igmp startupQueryInterval 31.25s
attr unit s
par WiredMeshNetwork.host1.ipv4.igmp startupQueryCount 2
par WiredMeshNetwork.host1.ipv4.igmp lastMemberQueryInterval 1s
attr unit s
par WiredMeshNetwork.host1.ipv4.igmp lastMemberQueryCount 2
par WiredMeshNetwork.host1.ipv4.igmp unsolicitedReportInterval 10s
attr unit s
par WiredMeshNetwork.host1.ipv4.icmp typename "\"inet.networklayer.ipv4.Icmp\""
par WiredMeshNetwork.host1.ipv4.icmp interfaceTableModule "\"WiredMeshNetwork.host1.interfaceTable\""
par WiredMeshNetwork.host1.ipv4.icmp routingTableModule "\"WiredMeshNetwork.host1.ipv4.routingTable\""
par WiredMeshNetwork.host1.ipv4.icmp crcMode "\"declared\""
attr enum declared,computed
attr mutable ""
par WiredMeshNetwork.host1.ipv4.icmp quoteLength 8B
attr mutable ""
attr unit B
par WiredMeshNetwork.host1.ipv4.mp typename "\"inet.common.MessageDispatcher\""
par WiredMeshNetwork.host1.ipv4.mp displayStringTextFormat "\"processed %p pk (%l)\""
par WiredMeshNetwork.host1.ipv4.mp forwardServiceRegistration true
par WiredMeshNetwork.host1.ipv4.mp forwardProtocolRegistration true
par WiredMeshNetwork.host1.ipv4.ip typename "\"inet.networklayer.ipv4.Ipv4\""
par WiredMeshNetwork.host1.ipv4.ip interfaceTableModule "\"WiredMeshNetwork.host1.interfaceTable\""
par WiredMeshNetwork.host1.ipv4.ip routingTableModule "\"WiredMeshNetwork.host1.ipv4.routingTable\""
par WiredMeshNetwork.host1.ipv4.ip arpModule "\"WiredMeshNetwork.host1.ipv4.arp\""
par WiredMeshNetwork.host1.ipv4.ip icmpModule "\"WiredMeshNetwork.host1.ipv4.icmp\""
par WiredMeshNetwork.host1.ipv4.ip crcMode "\"declared\""
attr enum declared,computed
par WiredMeshNetwork.host1.ipv4.ip timeToLive 32
par WiredMeshNetwork.host1.ipv4.ip multicastTimeToLive 32
par WiredMeshNetwork.host1.ipv4.ip fragmentTimeout 60s
attr unit s
par WiredMeshNetwork.host1.ipv4.ip limitedBroadcast false
par WiredMeshNetwork.host1.ipv4.ip directBroadcastInterfaces "\"\""
scalar WiredMeshNetwork.host1.ipv4.ip packetDropAddressResolutionFailed:count 0
attr interpolationmode none
attr recordingmode count
attr source packetDropReasonIsAddressResolutionFailed(packetDropped)
attr title "packet drop: address resolution failed, count"
scalar WiredMeshNetwork.host1.ipv4.ip packetDropAddressResolutionFailed:sum(packetBytes) 0
attr interpolationmode none
attr recordingmode sum(packetBytes)
attr source packetDropReasonIsAddressResolutionFailed(packetDropped)
attr title "packet drop: address resolution failed, sum(packetBytes)"
scalar WiredMeshNetwork.host1.ipv4.ip packetDropHopLimitReached:count 0
attr interpolationmode none
attr recordingmode count
attr source packetDropReasonIsHopLimitReached(packetDropped)
attr title "packet drop: hop limit reached, count"
scalar WiredMeshNetwork.host1.ipv4.ip packetDropHopLimitReached:sum(packetBytes) 0
attr interpolationmode none
attr recordingmode sum(packetBytes)
attr source packetDropReasonIsHopLimitReached(packetDropped)
attr title "packet drop: hop limit reached, sum(packetBytes)"
scalar WiredMeshNetwork.host1.ipv4.ip packetDropForwardingDisabled:count 0
attr interpolationmode none
attr recordingmode count
attr source packetDropReasonIsForwardingDisabled(packetDropped)
[...]
par WiredMeshNetwork.visualizer.canvasVisualizer.interfaceTableVisualizer textColor "\"#005030\""
par WiredMeshNetwork.visualizer.canvasVisualizer.interfaceTableVisualizer backgroundColor "\"white\""
par WiredMeshNetwork.visualizer.canvasVisualizer.interfaceTableVisualizer opacity 1
par WiredMeshNetwork.visualizer.canvasVisualizer.interfaceTableVisualizer zIndex 10
par WiredMeshNetwork.visualizer.canvasVisualizer.dataLinkVisualizer typename "\"inet.visualizer.canvas.linklayer.DataLinkCanvasVisualizer\""
par WiredMeshNetwork.visualizer.canvasVisualizer.dataLinkVisualizer visualizationTargetModule "\"^.^.^\""
par WiredMeshNetwork.visualizer.canvasVisualizer.dataLinkVisualizer visualizationSubjectModule "\"^.^.^\""
par WiredMeshNetwork.visualizer.canvasVisualizer.dataLinkVisualizer tags "\"\""
par WiredMeshNetwork.visualizer.canvasVisualizer.dataLinkVisualizer displayLinks false
par WiredMeshNetwork.visualizer.canvasVisualizer.dataLinkVisualizer activityLevel "\"service\""
attr enum service,peer,protocol
par WiredMeshNetwork.visualizer.canvasVisualizer.dataLinkVisualizer nodeFilter "\"*\""
attr mutable ""
par WiredMeshNetwork.visualizer.canvasVisualizer.dataLinkVisualizer interfaceFilter "\"*\""
attr mutable ""
par WiredMeshNetwork.visualizer.canvasVisualizer.dataLinkVisualizer packetFilter "(omnetpp::cValueHolder)holder: \"*\""
attr mutable ""
par WiredMeshNetwork.visualizer.canvasVisualizer.dataLinkVisualizer lineColor "\"darkcyan\""
par WiredMeshNetwork.visualizer.canvasVisualizer.dataLinkVisualizer lineStyle "\"solid\""
par WiredMeshNetwork.visualizer.canvasVisualizer.dataLinkVisualizer lineWidth 3
par WiredMeshNetwork.visualizer.canvasVisualizer.dataLinkVisualizer lineShift 16
par WiredMeshNetwork.visualizer.canvasVisualizer.dataLinkVisualizer lineShiftMode "\"normal\""
par WiredMeshNetwork.visualizer.canvasVisualizer.dataLinkVisualizer lineContactSpacing 3
par WiredMeshNetwork.visualizer.canvasVisualizer.dataLinkVisualizer lineContactMode "\"rectangular\""
attr enum circular,rectangular
par WiredMeshNetwork.visualizer.canvasVisualizer.dataLinkVisualizer labelFormat "\"%n\""
par WiredMeshNetwork.visualizer.canvasVisualizer.dataLinkVisualizer labelFont "\"<default>, 8px\""
par WiredMeshNetwork.visualizer.canvasVisualizer.dataLinkVisualizer labelColor "\"darkcyan\""
par WiredMeshNetwork.visualizer.canvasVisualizer.dataLinkVisualizer fadeOutMode "\"realTime\""
attr enum realTime,animationTime,simulationTime
par WiredMeshNetwork.visualizer.canvasVisualizer.dataLinkVisualizer fadeOutTime 1s
attr unit s
par WiredMeshNetwork.visualizer.canvasVisualizer.dataLinkVisualizer fadeOutAnimationSpeed 0
par WiredMeshNetwork.visualizer.canvasVisualizer.dataLinkVisualizer holdAnimationTime 0s
attr unit s
par WiredMeshNetwork.visualizer.canvasVisualizer.dataLinkVisualizer zIndex 2
par WiredMeshNetwork.visualizer.canvasVisualizer.linkBreakVisualizer typename "\"inet.visualizer.canvas.linklayer.LinkBreakCanvasVisualizer\""
par WiredMeshNetwork.visualizer.canvasVisualizer.linkBreakVisualizer visualizationTargetModule "\"^.^.^\""
par WiredMeshNetwork.visualizer.canvasVisualizer.linkBreakVisualizer visualizationSubjectModule "\"^.^.^\""
par WiredMeshNetwork.visualizer.canvasVisualizer.linkBreakVisualizer tags "\"\""
par WiredMeshNetwork.visualizer.canvasVisualizer.linkBreakVisualizer displayLinkBreaks false
par WiredMeshNetwork.visualizer.canvasVisualizer.linkBreakVisualizer nodeFilter "\"*\""
attr mutable ""
par WiredMeshNetwork.visualizer.canvasVisualizer.linkBreakVisualizer interfaceFilter "\"*\""
attr mutable ""
par WiredMeshNetwork.visualizer.canvasVisualizer.linkBreakVisualizer packetFilter "(omnetpp::cValueHolder)holder: \"*\""
attr mutable ""
par WiredMeshNetwork.visualizer.canvasVisualizer.linkBreakVisualizer icon "\"status/stop\""
par WiredMeshNetwork.visualizer.canvasVisualizer.linkBreakVisualizer iconTintAmount 0
par WiredMeshNetwork.visualizer.canvasVisualizer.linkBreakVisualizer iconTintColor "\"\""
par WiredMeshNetwork.visualizer.canvasVisualizer.linkBreakVisualizer fadeOutMode "\"realTime\""
attr enum realTime,animationTime,simulationTime
par WiredMeshNetwork.visualizer.canvasVisualizer.linkBreakVisualizer fadeOutTime 1s
attr unit s
par WiredMeshNetwork.visualizer.canvasVisualizer.linkBreakVisualizer fadeOutAnimationSpeed 0
par WiredMeshNetwork.visualizer.canvasVisualizer.linkBreakVisualizer zIndex 2
par WiredMeshNetwork.visualizer.canvasVisualizer.ieee80211Visualizer typename "\"inet.visualizer.canvas.linklayer.Ieee80211CanvasVisualizer\""
par WiredMeshNetwork.visualizer.canvasVisualizer.ieee80211Visualizer visualizationTargetModule "\"^.^.^\""
par WiredMeshNetwork.visualizer.canvasVisualizer.ieee80211Visualizer visualizationSubjectModule "\"^.^.^\""
par WiredMeshNetwork.visualizer.canvasVisualizer.ieee80211Visualizer tags "\"\""
par WiredMeshNetwork.visualizer.canvasVisualizer.ieee80211Visualizer networkNodeVisualizerModule "\"^.networkNodeVisualizer\""
par WiredMeshNetwork.visualizer.canvasVisualizer.ieee80211Visualizer displayAssociations false
par WiredMeshNetwork.visualizer.canvasVisualizer.ieee80211Visualizer nodeFilter "\"*\""
attr mutable ""
par WiredMeshNetwork.visualizer.canvasVisualizer.ieee80211Visualizer interfaceFilter "\"*\""
attr mutable ""
par WiredMeshNetwork.visualizer.canvasVisualizer.ieee80211Visualizer minPower -85dBm
attr unit dBm
par WiredMeshNetwork.visualizer.canvasVisualizer.ieee80211Visualizer maxPower -50dBm
attr unit dBm
par WiredMeshNetwork.visualizer.canvasVisualizer.ieee80211Visualizer icons "\"misc/signal_power_0 misc/signal_power_1 misc/signal_power_2 misc/signal_power_3\""
par WiredMeshNetwork.visualizer.canvasVisualizer.ieee80211Visualizer iconColor "\"dark\""
attr enum light,dark
par WiredMeshNetwork.visualizer.canvasVisualizer.ieee80211Visualizer labelFont "\"<default>\""
par WiredMeshNetwork.visualizer.canvasVisualizer.ieee80211Visualizer labelColor "\"black\""
par WiredMeshNetwork.visualizer.canvasVisualizer.ieee80211Visualizer placementHint "\"top\""
par WiredMeshNetwork.visualizer.canvasVisualizer.ieee80211Visualizer placementPriority 0
par WiredMeshNetwork.visualizer.canvasVisualizer.ieee80211Visualizer zIndex 2
par WiredMeshNetwork.visualizer.canvasVisualizer.networkRouteVisualizer typename "\"inet.visualizer.canvas.networklayer.NetworkRouteCanvasVisualizer\""
par WiredMeshNetwork.visualizer.canvasVisualizer.networkRouteVisualizer visualizationTargetModule "\"^.^.^\""
par WiredMeshNetwork.visualizer.canvasVisualizer.networkRouteVisualizer visualizationSubjectModule "\"^.^.^\""
par WiredMeshNetwork.visualizer.canvasVisualizer.networkRouteVisualizer tags "\"\""
par WiredMeshNetwork.visualizer.canvasVisualizer.networkRouteVisualizer displayRoutes false
par WiredMeshNetwork.visualizer.canvasVisualizer.networkRouteVisualizer startPathSignal "\"packetReceivedFromUpper\""
par WiredMeshNetwork.visualizer.canvasVisualizer.networkRouteVisualizer extendPathSignal "\"packetReceivedFromLower\""
par WiredMeshNetwork.visualizer.canvasVisualizer.networkRouteVisualizer endPathSignal "\"packetSentToUpper\""
par WiredMeshNetwork.visualizer.canvasVisualizer.networkRouteVisualizer nodeFilter "\"*\""
attr mutable ""
par WiredMeshNetwork.visualizer.canvasVisualizer.networkRouteVisualizer packetFilter "(omnetpp::cValueHolder)holder: \"*\""
attr mutable ""
par WiredMeshNetwork.visualizer.canvasVisualizer.networkRouteVisualizer lineColor "\"dark\""
attr enum light,dark
par WiredMeshNetwork.visualizer.canvasVisualizer.networkRouteVisualizer lineStyle "\"solid\""
par WiredMeshNetwork.visualizer.canvasVisualizer.networkRouteVisualizer lineWidth 3
par WiredMeshNetwork.visualizer.canvasVisualizer.networkRouteVisualizer lineSmooth false
par WiredMeshNetwork.visualizer.canvasVisualizer.networkRouteVisualizer lineShift 16
par WiredMeshNetwork.visualizer.canvasVisualizer.networkRouteVisualizer lineShiftMode "\"normal\""
par WiredMeshNetwork.visualizer.canvasVisualizer.networkRouteVisualizer lineContactSpacing 3
par WiredMeshNetwork.visualizer.canvasVisualizer.networkRouteVisualizer lineContactMode "\"rectangular\""
attr enum circular,rectangular
par WiredMeshNetwork.visualizer.canvasVisualizer.networkRouteVisualizer labelFormat "\"%n\""
par WiredMeshNetwork.visualizer.canvasVisualizer.networkRouteVisualizer labelFont "\"<default>, 8px\""
par WiredMeshNetwork.visualizer.canvasVisualizer.networkRouteVisualizer labelColor "\"\""
par WiredMeshNetwork.visualizer.canvasVisualizer.networkRouteVisualizer fadeOutMode "\"realTime\""
attr enum realTime,animationTime,simulationTime
par WiredMeshNetwork.visualizer.canvasVisualizer.networkRouteVisualizer fadeOutTime 1s
attr unit s
par WiredMeshNetwork.visualizer.canvasVisualizer.networkRouteVisualizer fadeOutAnimationSpeed 0
par WiredMeshNetwork.visualizer.canvasVisualizer.networkRouteVisualizer zIndex 3
par WiredMeshNetwork.visualizer.canvasVisualizer.routingTableVisualizer typename "\"inet.visualizer.canvas.networklayer.RoutingTableCanvasVisualizer\""
par WiredMeshNetwork.visualizer.canvasVisualizer.routingTableVisualizer visualizationTargetModule "\"^.^.^\""
par WiredMeshNetwork.visualizer.canvasVisualizer.routingTableVisualizer visualizationSubjectModule "\"^.^.^\""
par WiredMeshNetwork.visualizer.canvasVisualizer.routingTableVisualizer tags "\"\""
par WiredMeshNetwork.visualizer.canvasVisualizer.routingTableVisualizer displayRoutingTables false
par WiredMeshNetwork.visualizer.canvasVisualizer.routingTableVisualizer displayRoutesIndividually true
par WiredMeshNetwork.visualizer.canvasVisualizer.routingTableVisualizer displayLabels true
par WiredMeshNetwork.visualizer.canvasVisualizer.routingTableVisualizer destinationFilter "\"*\""
attr mutable ""
par WiredMeshNetwork.visualizer.canvasVisualizer.routingTableVisualizer nodeFilter "\"*\""
attr mutable ""
par WiredMeshNetwork.visualizer.canvasVisualizer.routingTableVisualizer lineColor "\"black\""
par WiredMeshNetwork.visualizer.canvasVisualizer.routingTableVisualizer lineStyle "\"solid\""
par WiredMeshNetwork.visualizer.canvasVisualizer.routingTableVisualizer lineWidth 2
par WiredMeshNetwork.visualizer.canvasVisualizer.routingTableVisualizer lineShift 16
par WiredMeshNetwork.visualizer.canvasVisualizer.routingTableVisualizer lineShiftMode "\"normal\""
par WiredMeshNetwork.visualizer.canvasVisualizer.routingTableVisualizer lineContactSpacing 3
par WiredMeshNetwork.visualizer.canvasVisualizer.routingTableVisualizer lineContactMode "\"rectangular\""
attr enum circular,rectangular
par WiredMeshNetwork.visualizer.canvasVisualizer.routingTableVisualizer labelFormat "\"%d/%m -> %g (%n)\""
attr mutable ""
par WiredMeshNetwork.visualizer.canvasVisualizer.routingTableVisualizer labelFont "\"<default>, 8px\""
par WiredMeshNetwork.visualizer.canvasVisualizer.routingTableVisualizer labelColor "\"black\""
par WiredMeshNetwork.visualizer.canvasVisualizer.routingTableVisualizer zIndex 0
par WiredMeshNetwork.visualizer.canvasVisualizer.transportRouteVisualizer typename "\"inet.visualizer.canvas.transportlayer.TransportRouteCanvasVisualizer\""
par WiredMeshNetwork.visualizer.canvasVisualizer.transportRouteVisualizer visualizationTargetModule "\"^.^.^\""
par WiredMeshNetwork.visualizer.canvasVisualizer.transportRouteVisualizer visualizationSubjectModule "\"^.^.^\""
par WiredMeshNetwork.visualizer.canvasVisualizer.transportRouteVisualizer tags "\"\""
par WiredMeshNetwork.visualizer.canvasVisualizer.transportRouteVisualizer displayRoutes false
par WiredMeshNetwork.visualizer.canvasVisualizer.transportRouteVisualizer startPathSignal "\"packetReceivedFromUpper\""
par WiredMeshNetwork.visualizer.canvasVisualizer.transportRouteVisualizer extendPathSignal "\"packetReceivedFromLower\""
par WiredMeshNetwork.visualizer.canvasVisualizer.transportRouteVisualizer endPathSignal "\"packetSentToUpper\""
par WiredMeshNetwork.visualizer.canvasVisualizer.transportRouteVisualizer nodeFilter "\"*\""
attr mutable ""
par WiredMeshNetwork.visualizer.canvasVisualizer.transportRouteVisualizer packetFilter "(omnetpp::cValueHolder)holder: \"*\""
attr mutable ""
par WiredMeshNetwork.visualizer.canvasVisualizer.transportRouteVisualizer lineColor "\"dark\""
attr enum light,dark
par WiredMeshNetwork.visualizer.canvasVisualizer.transportRouteVisualizer lineStyle "\"solid\""
par WiredMeshNetwork.visualizer.canvasVisualizer.transportRouteVisualizer lineWidth 3
par WiredMeshNetwork.visualizer.canvasVisualizer.transportRouteVisualizer lineSmooth false
par WiredMeshNetwork.visualizer.canvasVisualizer.transportRouteVisualizer lineShift 16
par WiredMeshNetwork.visualizer.canvasVisualizer.transportRouteVisualizer lineShiftMode "\"normal\""
par WiredMeshNetwork.visualizer.canvasVisualizer.transportRouteVisualizer lineContactSpacing 3
par WiredMeshNetwork.visualizer.canvasVisualizer.transportRouteVisualizer lineContactMode "\"rectangular\""
attr enum circular,rectangular
par WiredMeshNetwork.visualizer.canvasVisualizer.transportRouteVisualizer labelFormat "\"%n\""
par WiredMeshNetwork.visualizer.canvasVisualizer.transportRouteVisualizer labelFont "\"<default>, 8px\""
par WiredMeshNetwork.visualizer.canvasVisualizer.transportRouteVisualizer labelColor "\"\""
par WiredMeshNetwork.visualizer.canvasVisualizer.transportRouteVisualizer fadeOutMode "\"realTime\""
attr enum realTime,animationTime,simulationTime
par WiredMeshNetwork.visualizer.canvasVisualizer.transportRouteVisualizer fadeOutTime 1s
attr unit s
par WiredMeshNetwork.visualizer.canvasVisualizer.transportRouteVisualizer fadeOutAnimationSpeed 0
par WiredMeshNetwork.visualizer.canvasVisualizer.transportRouteVisualizer zIndex 4
par WiredMeshNetwork.visualizer.canvasVisualizer.transportConnectionVisualizer typename "\"inet.visualizer.canvas.transportlayer.TransportConnectionCanvasVisualizer\""
par WiredMeshNetwork.visualizer.canvasVisualizer.transportConnectionVisualizer visualizationTargetModule "\"^.^.^\""
par WiredMeshNetwork.visualizer.canvasVisualizer.transportConnectionVisualizer visualizationSubjectModule "\"^.^.^\""
par WiredMeshNetwork.visualizer.canvasVisualizer.transportConnectionVisualizer tags "\"\""
par WiredMeshNetwork.visualizer.canvasVisualizer.transportConnectionVisualizer networkNodeVisualizerModule "\"^.networkNodeVisualizer\""
par WiredMeshNetwork.visualizer.canvasVisualizer.transportConnectionVisualizer displayTransportConnections false
par WiredMeshNetwork.visualizer.canvasVisualizer.transportConnectionVisualizer sourceNodeFilter "\"*\""
attr mutable ""
par WiredMeshNetwork.visualizer.canvasVisualizer.transportConnectionVisualizer sourcePortFilter "\"*\""
attr mutable ""
par WiredMeshNetwork.visualizer.canvasVisualizer.transportConnectionVisualizer destinationNodeFilter "\"*\""
attr mutable ""
par WiredMeshNetwork.visualizer.canvasVisualizer.transportConnectionVisualizer destinationPortFilter "\"*\""
attr mutable ""
par WiredMeshNetwork.visualizer.canvasVisualizer.transportConnectionVisualizer icon "\"misc/marker_s\""
par WiredMeshNetwork.visualizer.canvasVisualizer.transportConnectionVisualizer iconColor "\"dark\""
attr enum light,dark
par WiredMeshNetwork.visualizer.canvasVisualizer.transportConnectionVisualizer labelFont "\"<default>\""
par WiredMeshNetwork.visualizer.canvasVisualizer.transportConnectionVisualizer labelColor "\"black\""
par WiredMeshNetwork.visualizer.canvasVisualizer.transportConnectionVisualizer placementHint "\"top\""
par WiredMeshNetwork.visualizer.canvasVisualizer.transportConnectionVisualizer placementPriority 0
par WiredMeshNetwork.visualizer.canvasVisualizer.transportConnectionVisualizer zIndex 4
par WiredMeshNetwork.visualizer.canvasVisualizer.failureProtectionConfigurationVisualizer typename "\"inet.visualizer.canvas.configurator.FailureProtectionConfigurationCanvasVisualizer\""
par WiredMeshNetwork.visualizer.canvasVisualizer.failureProtectionConfigurationVisualizer visualizationTargetModule "\"^.^.^\""
par WiredMeshNetwork.visualizer.canvasVisualizer.failureProtectionConfigurationVisualizer visualizationSubjectModule "\"^.^.^\""
par WiredMeshNetwork.visualizer.canvasVisualizer.failureProtectionConfigurationVisualizer tags "\"\""
par WiredMeshNetwork.visualizer.canvasVisualizer.failureProtectionConfigurationVisualizer displayTrees false
par WiredMeshNetwork.visualizer.canvasVisualizer.failureProtectionConfigurationVisualizer lineColor "\"dark\""
attr enum light,dark
par WiredMeshNetwork.visualizer.canvasVisualizer.failureProtectionConfigurationVisualizer lineStyle "\"solid\""
par WiredMeshNetwork.visualizer.canvasVisualizer.failureProtectionConfigurationVisualizer lineWidth 3
par WiredMeshNetwork.visualizer.canvasVisualizer.failureProtectionConfigurationVisualizer lineSmooth false
par WiredMeshNetwork.visualizer.canvasVisualizer.failureProtectionConfigurationVisualizer lineShift 16
par WiredMeshNetwork.visualizer.canvasVisualizer.failureProtectionConfigurationVisualizer lineShiftMode "\"normal\""
par WiredMeshNetwork.visualizer.canvasVisualizer.failureProtectionConfigurationVisualizer lineContactSpacing 3
par WiredMeshNetwork.visualizer.canvasVisualizer.failureProtectionConfigurationVisualizer lineContactMode "\"rectangular\""
attr enum circular,rectangular
par WiredMeshNetwork.visualizer.canvasVisualizer.failureProtectionConfigurationVisualizer failureProtectionConfiguratorModule "\"failureProtectionConfigurator\""
par WiredMeshNetwork.visualizer.canvasVisualizer.failureProtectionConfigurationVisualizer streamFilter "\"*\""
par WiredMeshNetwork.visualizer.canvasVisualizer.failureProtectionConfigurationVisualizer zIndex 3
par WiredMeshNetwork.visualizer.canvasVisualizer.streamRedundancyConfigurationVisualizer typename "\"inet.visualizer.canvas.configurator.StreamRedundancyConfigurationCanvasVisualizer\""
par WiredMeshNetwork.visualizer.canvasVisualizer.streamRedundancyConfigurationVisualizer visualizationTargetModule "\"^.^.^\""
par WiredMeshNetwork.visualizer.canvasVisualizer.streamRedundancyConfigurationVisualizer visualizationSubjectModule "\"^.^.^\""
par WiredMeshNetwork.visualizer.canvasVisualizer.streamRedundancyConfigurationVisualizer tags "\"\""
par WiredMeshNetwork.visualizer.canvasVisualizer.streamRedundancyConfigurationVisualizer displayTrees false
par WiredMeshNetwork.visualizer.canvasVisualizer.streamRedundancyConfigurationVisualizer lineColor "\"dark\""
attr enum light,dark
par WiredMeshNetwork.visualizer.canvasVisualizer.streamRedundancyConfigurationVisualizer lineStyle "\"solid\""
par WiredMeshNetwork.visualizer.canvasVisualizer.streamRedundancyConfigurationVisualizer lineWidth 3
par WiredMeshNetwork.visualizer.canvasVisualizer.streamRedundancyConfigurationVisualizer lineSmooth false
par WiredMeshNetwork.visualizer.canvasVisualizer.streamRedundancyConfigurationVisualizer lineShift 16
par WiredMeshNetwork.visualizer.canvasVisualizer.streamRedundancyConfigurationVisualizer lineShiftMode "\"normal\""
par WiredMeshNetwork.visualizer.canvasVisualizer.streamRedundancyConfigurationVisualizer lineContactSpacing 3
par WiredMeshNetwork.visualizer.canvasVisualizer.streamRedundancyConfigurationVisualizer lineContactMode "\"rectangular\""
attr enum circular,rectangular
par WiredMeshNetwork.visualizer.canvasVisualizer.streamRedundancyConfigurationVisualizer streamRedundancyConfiguratorModule "\"streamRedundancyConfigurator\""
par WiredMeshNetwork.visualizer.canvasVisualizer.streamRedundancyConfigurationVisualizer streamFilter "\"*\""
par WiredMeshNetwork.visualizer.canvasVisualizer.streamRedundancyConfigurationVisualizer zIndex 3
par WiredMeshNetwork.visualizer.canvasVisualizer typename "\"inet.visualizer.canvas.integrated.IntegratedCanvasVisualizer\""
par WiredMeshNetwork.visualizer typename "\"inet.visualizer.common.IntegratedVisualizer\""
par WiredMeshNetwork typename "\"wirednetworkp2p.simulations.WiredMeshNetwork\""

